Version 4
SHEET 1 916 680
SYMBOL ZZZ\\MOS\\WPH4003 96 112 R0
WINDOW 3 -124 40 Left 2
SYMATTR InstName U1
SYMBOL ZZZ\\MOS\\Infineon\\CoolMOS 288 160 R0
SYMATTR InstName U2
SYMATTR SpiceModel IPW90R340C3_L0
