Version 4
SHEET 1 880 680
WIRE 400 -32 240 -32
WIRE 240 -16 240 -32
WIRE 240 128 240 64
WIRE 96 192 64 192
WIRE 208 192 176 192
WIRE 64 224 64 192
WIRE 400 224 400 -32
WIRE 64 320 64 304
WIRE 240 320 240 192
WIRE 240 320 64 320
WIRE 400 320 400 304
WIRE 400 320 240 320
FLAG 240 320 0
SYMBOL res 224 -32 R0
SYMATTR InstName R1
SYMATTR Value 1
SYMBOL voltage 64 208 R0
WINDOW 3 24 96 Invisible 2
WINDOW 123 0 0 Left 2
WINDOW 39 0 0 Left 2
SYMATTR Value PULSE(0 10 5m 1u 1u 1m 10m)
SYMATTR InstName V1
SYMBOL res 80 208 R270
WINDOW 0 32 56 VTop 2
WINDOW 3 0 56 VBottom 2
SYMATTR InstName R2
SYMATTR Value 50
SYMBOL voltage 400 208 R0
WINDOW 3 24 96 Invisible 2
WINDOW 123 0 0 Left 2
WINDOW 39 0 0 Left 2
SYMATTR Value SINE(0 20 50)
SYMATTR InstName V2
SYMBOL ValVol\\ST\\thyristors_st\\scr\\SCR_ST 240 160 R0
WINDOW 38 86 31 Center 2
SYMATTR InstName U2
SYMATTR SpiceModel BTW69-1200
TEXT 32 344 Left 2 !.tran 1
