Version 4
SHEET 1 2600 1484
WIRE 1312 128 1200 128
WIRE 1392 128 1312 128
WIRE 1472 128 1392 128
WIRE 1536 128 1472 128
WIRE 1632 128 1536 128
WIRE 1728 128 1632 128
WIRE 1824 128 1728 128
WIRE 1904 128 1824 128
WIRE 1904 144 1904 128
WIRE 1200 160 1200 128
WIRE 1312 160 1312 128
WIRE 1392 160 1392 128
WIRE 1472 160 1472 128
WIRE 1632 176 1632 128
WIRE 1728 176 1728 128
WIRE 1200 240 1200 224
WIRE 1200 240 992 240
WIRE 1824 240 1824 128
WIRE 1392 256 1392 224
WIRE 1472 256 1472 224
WIRE 1472 256 1392 256
WIRE 1392 288 1392 256
WIRE 1728 288 1728 256
WIRE 1312 320 1312 224
WIRE 1312 320 992 320
WIRE 2048 320 1984 320
WIRE 2176 320 2112 320
WIRE 2272 320 2176 320
WIRE 2304 320 2272 320
WIRE 2416 320 2384 320
WIRE 2496 320 2416 320
WIRE 2528 320 2496 320
WIRE 1200 336 1200 240
WIRE 1312 336 1312 320
WIRE 1904 336 1904 208
WIRE 2528 336 2528 320
WIRE 1824 352 1824 320
WIRE 1984 352 1984 320
WIRE 2176 352 2176 320
WIRE 2272 352 2272 320
WIRE 2416 352 2416 320
WIRE 1632 368 1632 256
WIRE 1728 368 1728 352
WIRE 1728 368 1632 368
WIRE 1728 384 1728 368
WIRE 1200 416 1200 400
WIRE 1312 416 1312 400
WIRE 1312 416 1200 416
WIRE 1200 432 1200 416
WIRE 1536 432 1536 128
WIRE 1984 448 1984 432
WIRE 2176 448 2176 416
WIRE 2176 448 1984 448
WIRE 2272 448 2272 416
WIRE 2272 448 2176 448
WIRE 2416 448 2416 416
WIRE 2416 448 2272 448
WIRE 2528 448 2528 416
WIRE 2528 448 2416 448
WIRE 1984 464 1984 448
WIRE 1728 480 1728 448
WIRE 1824 480 1824 432
WIRE 1824 480 1728 480
WIRE 1904 480 1904 416
WIRE 1904 480 1824 480
WIRE 2496 480 2496 320
WIRE 1536 544 1536 512
WIRE 1536 544 1456 544
WIRE 1984 544 1936 544
WIRE 1456 560 1456 544
WIRE 1728 576 1728 480
WIRE 2128 576 2112 576
WIRE 2240 576 2208 576
WIRE 2496 576 2496 560
WIRE 2496 576 2432 576
WIRE 1456 640 1456 624
WIRE 1536 656 1536 544
WIRE 1568 656 1536 656
WIRE 1664 656 1648 656
WIRE 1680 656 1664 656
WIRE 1984 656 1984 624
WIRE 2240 672 2128 672
WIRE 2496 672 2496 656
WIRE 2496 672 2432 672
WIRE 2496 704 2496 672
WIRE 1136 720 1104 720
WIRE 1264 720 1216 720
WIRE 1536 720 1536 656
WIRE 1536 720 1520 720
WIRE 1568 720 1536 720
WIRE 1664 720 1664 656
WIRE 1664 720 1632 720
WIRE 1104 784 1104 720
WIRE 1136 784 1104 784
WIRE 1264 784 1216 784
WIRE 1728 784 1728 672
WIRE 1728 784 1520 784
WIRE 2496 800 2496 768
WIRE 1728 816 1728 784
WIRE 1104 848 1104 784
WIRE 1136 848 1104 848
WIRE 1248 848 1216 848
WIRE 1264 848 1248 848
WIRE 1568 848 1520 848
WIRE 1616 848 1568 848
WIRE 1104 912 1104 848
WIRE 1136 912 1104 912
WIRE 1232 912 1216 912
WIRE 1264 912 1232 912
WIRE 1568 912 1520 912
WIRE 1728 912 1728 880
WIRE 1728 912 1568 912
WIRE 2112 912 2112 576
WIRE 2112 912 1728 912
WIRE 1568 928 1568 912
WIRE 1104 944 1104 912
WIRE 1728 944 1728 912
WIRE 1568 1008 1568 992
WIRE 1248 1040 1248 848
WIRE 1344 1040 1248 1040
WIRE 1728 1040 1728 1008
WIRE 1728 1040 1424 1040
WIRE 1936 1040 1936 544
WIRE 1936 1040 1728 1040
WIRE 1232 1104 1232 912
WIRE 1344 1104 1232 1104
WIRE 1440 1104 1424 1104
WIRE 2128 1104 2128 672
WIRE 2128 1104 1440 1104
WIRE 1440 1120 1440 1104
WIRE 1440 1200 1440 1184
FLAG 1984 656 0
FLAG 1984 464 0
FLAG 1392 288 0
FLAG 2496 800 0
FLAG 1568 1008 0
FLAG 1104 944 0
FLAG 1440 1200 0
FLAG 1616 848 0
FLAG 1456 640 0
FLAG 1200 432 0
SYMBOL res 1120 736 R270
WINDOW 0 31 22 VTop 2
WINDOW 3 58 77 VBottom 2
SYMATTR InstName R8
SYMATTR Value 68.1k
SYMBOL res 1120 800 R270
WINDOW 0 32 25 VTop 2
WINDOW 3 59 85 VBottom 2
SYMATTR InstName R9
SYMATTR Value 64.9k
SYMBOL res 1120 864 R270
WINDOW 0 32 29 VTop 2
WINDOW 3 57 85 VBottom 2
SYMATTR InstName R10
SYMATTR Value 51.1k
SYMBOL res 1120 928 R270
WINDOW 0 34 26 VTop 2
WINDOW 3 61 86 VBottom 2
SYMATTR InstName R11
SYMATTR Value 100k
SYMBOL res 1328 1120 R270
WINDOW 0 33 18 VTop 2
WINDOW 3 61 83 VBottom 2
SYMATTR InstName R12
SYMATTR Value 20.5k
SYMBOL res 1328 1056 R270
WINDOW 0 33 24 VTop 2
WINDOW 3 61 81 VBottom 2
SYMATTR InstName R13
SYMATTR Value 169k
SYMBOL cap 1440 560 R0
SYMATTR InstName C2
SYMATTR Value 0.1µ
SYMBOL cap 1552 848 R0
SYMATTR InstName C3
SYMATTR Value 0.1µ
SYMBOL cap 1424 1120 R0
SYMATTR InstName C5
SYMATTR Value 100p
SYMBOL res 1552 672 R270
WINDOW 0 38 33 VTop 2
WINDOW 3 63 93 VBottom 2
SYMATTR InstName R14
SYMATTR Value 196
SYMBOL schottky 1632 704 R90
WINDOW 0 0 32 VBottom 2
WINDOW 3 32 32 VTop 2
SYMATTR InstName D11
SYMATTR Value BAT54
SYMATTR Description Diode
SYMATTR Type diode
SYMBOL nmos 1680 576 R0
SYMATTR InstName M1
SYMATTR Value SPA11N60C3
SYMBOL res 1520 416 R0
SYMATTR InstName R15
SYMATTR Value 6.15meg
SYMBOL ind2 1840 448 R180
WINDOW 0 36 80 Left 2
WINDOW 3 36 40 Left 2
SYMATTR InstName L1
SYMATTR Value 228µ
SYMATTR Type ind
SYMATTR SpiceLine Rser=0.1
SYMBOL ind2 1968 336 R0
SYMATTR InstName L2
SYMATTR Value 1.35µ
SYMATTR Type ind
SYMATTR SpiceLine Rser=10m
SYMBOL ind2 1968 528 R0
SYMATTR InstName L3
SYMATTR Value 1.35µ
SYMATTR Type ind
SYMATTR SpiceLine Rser=10m
SYMBOL schottky 2048 336 R270
WINDOW 0 32 32 VTop 2
WINDOW 3 0 32 VBottom 2
SYMATTR InstName D12
SYMATTR Value DI_PDS5100H
SYMATTR Description Diode
SYMATTR Type diode
SYMBOL cap 2160 352 R0
SYMATTR InstName C6
SYMATTR Value 1µ
SYMBOL cap 2256 352 R0
SYMATTR InstName C7
SYMATTR Value 680µ
SYMATTR SpiceLine Rser=0.1
SYMBOL ind 2288 336 R270
WINDOW 0 32 56 VTop 2
WINDOW 3 5 56 VBottom 2
SYMATTR InstName L4
SYMATTR Value 3.3µ
SYMATTR SpiceLine Rser=10m
SYMBOL cap 2400 352 R0
SYMATTR InstName C8
SYMATTR Value 680µ
SYMATTR SpiceLine Rser=0.1
SYMBOL ind 1808 224 R0
SYMATTR InstName L5
SYMATTR Value 5µ
SYMATTR SpiceLine Rser=0.1
SYMBOL diode 1744 448 R180
WINDOW 0 24 64 Left 2
WINDOW 3 24 0 Left 2
SYMATTR InstName D14
SYMATTR Value DI_US1M
SYMBOL cap 1712 288 R0
SYMATTR InstName C9
SYMATTR Value 330p
SYMBOL res 1712 160 R0
SYMATTR InstName R17
SYMATTR Value 33
SYMBOL res 1616 160 R0
SYMATTR InstName R18
SYMATTR Value 64.9k
SYMBOL cap 1376 160 R0
SYMATTR InstName C10
SYMATTR Value 100µ
SYMATTR SpiceLine Rser=1.6
SYMBOL voltage 992 224 R0
WINDOW 123 0 0 Left 2
WINDOW 39 34 75 Left 2
WINDOW 0 43 47 Left 2
WINDOW 3 24 96 Invisible 2
SYMATTR SpiceLine Rser=0.2
SYMATTR InstName V7
SYMATTR Value SINE(0 {220*1.414} 50)
SYMBOL res 2480 464 R0
SYMATTR InstName R19
SYMATTR Value 681
SYMBOL res 2480 560 R0
SYMATTR InstName R20
SYMATTR Value 1k
SYMBOL zener 2512 768 R180
WINDOW 0 24 64 Left 2
WINDOW 3 24 0 Left 2
SYMATTR InstName D15
SYMATTR Value PH_BZX884-B10
SYMATTR Description Diode
SYMATTR Type diode
SYMBOL Optos\\PC817A 2336 624 M0
SYMATTR InstName U1
SYMBOL res 2112 592 R270
WINDOW 0 32 56 VTop 2
WINDOW 3 0 56 VBottom 2
SYMATTR InstName R21
SYMATTR Value 1k
SYMBOL cap 1552 928 R0
SYMATTR InstName C11
SYMATTR Value 68µ
SYMATTR SpiceLine Rser=1
SYMBOL diode 1744 1008 R180
WINDOW 0 24 64 Left 2
WINDOW 3 24 0 Left 2
SYMATTR InstName D16
SYMATTR Value DI_US1D
SYMBOL schottky 1712 816 R0
SYMATTR InstName D17
SYMATTR Value DI_B140
SYMATTR Description Diode
SYMATTR Type diode
SYMBOL cap 1888 144 R0
SYMATTR InstName C12
SYMATTR Value 510p
SYMBOL res 1888 320 R0
SYMATTR InstName R22
SYMATTR Value 620
SYMBOL res 2512 320 R0
SYMATTR InstName R16
SYMATTR Value 6
SYMBOL ValVol\\ucc28610 1392 816 R0
SYMATTR InstName U2
SYMBOL diode 1328 224 R180
WINDOW 0 24 64 Left 2
WINDOW 3 24 0 Left 2
SYMATTR InstName D1
SYMATTR Value DI_RS1M
SYMBOL diode 1216 224 R180
WINDOW 0 24 64 Left 2
WINDOW 3 24 0 Left 2
SYMATTR InstName D2
SYMATTR Value DI_RS1M
SYMBOL diode 1328 400 R180
WINDOW 0 24 64 Left 2
WINDOW 3 24 0 Left 2
SYMATTR InstName D3
SYMATTR Value DI_RS1M
SYMBOL diode 1216 400 R180
WINDOW 0 24 64 Left 2
WINDOW 3 24 0 Left 2
SYMATTR InstName D4
SYMATTR Value DI_RS1M
SYMBOL cap 1456 160 R0
SYMATTR InstName C1
SYMATTR Value 0.1µ
TEXT 1880 512 Left 2 !K1 L1 L2 L3 1
TEXT 2168 1128 Left 2 !.tran 1 uic
