Version 4
SHEET 1 880 680
WIRE -16 128 -384 128
WIRE 16 128 -16 128
WIRE -384 192 -384 128
WIRE 16 192 16 128
WIRE -240 224 -304 224
WIRE -16 224 -16 128
WIRE -16 224 -48 224
WIRE -240 288 -272 288
WIRE 16 288 16 272
WIRE 16 288 -48 288
WIRE -240 352 -304 352
WIRE 16 352 -48 352
WIRE -384 432 -384 272
WIRE -272 432 -272 288
WIRE -272 432 -384 432
WIRE 16 432 16 352
WIRE 16 432 -272 432
WIRE 16 464 16 432
FLAG 16 464 0
FLAG -304 352 H
FLAG -304 224 B
SYMBOL voltage -384 176 R0
WINDOW 3 -34 -66 Left 0
WINDOW 123 0 0 Left 0
WINDOW 39 0 0 Left 0
WINDOW 0 10 5 Left 0
SYMATTR Value PULSE({b*A*N*f/0.25} {-b*A*N*f/0.25} {0.25/f} {0.5m/f} {0.5m/f} {(0.5-0.5m)/f} {1/f})
SYMATTR InstName V1
SYMBOL ind 0 176 R0
WINDOW 3 -419 -107 Left 0
SYMATTR Value Hc=42 Br=1.14 Bs=1.896 Lm={Lm} Lg=0 A={A} N={N}
SYMATTR InstName L1
SYMATTR SpiceLine Rser=10m
SYMBOL Mylib\\G_Loop -144 288 R0
SYMATTR InstName U1
SYMATTR SpiceLine A={A} N={N} Lm={Lm}
TEXT -304 488 Left 0 !.tran 0 {1.25/f} {0.25/f} {0.5m/f} uic
TEXT -416 32 Left 0 !.param b=1.8 f=50 A=0.0035 N=160 Lm=0.235 R=0.1
TEXT 88 280 Left 0 ;IL1
LINE Normal 80 384 80 192
LINE Normal 96 368 80 384
LINE Normal 64 368 96 368
LINE Normal 80 384 64 368
