Version 4
SHEET 1 4248 684
WIRE -192 -48 -496 -48
WIRE 112 -48 64 -48
WIRE 176 -48 112 -48
WIRE 240 -48 176 -48
WIRE 368 -48 240 -48
WIRE 384 -48 368 -48
WIRE 496 -48 464 -48
WIRE 112 -16 112 -48
WIRE 176 -16 176 -48
WIRE 240 -16 240 -48
WIRE 608 0 576 0
WIRE 736 0 688 0
WIRE 832 0 800 0
WIRE -192 16 -256 16
WIRE 496 16 496 -48
WIRE -256 48 -256 16
WIRE -384 80 -496 80
WIRE -320 80 -384 80
WIRE -192 80 -320 80
WIRE 240 80 240 48
WIRE 240 80 64 80
WIRE 256 80 240 80
WIRE 400 80 336 80
WIRE 576 80 576 0
WIRE 576 80 464 80
WIRE 640 80 576 80
WIRE 832 80 832 0
WIRE 832 80 720 80
WIRE -496 112 -496 80
WIRE -192 144 -256 144
WIRE 96 144 64 144
WIRE 176 144 176 48
WIRE 176 144 96 144
WIRE 224 144 176 144
WIRE 288 144 224 144
WIRE 576 144 576 80
WIRE 640 144 576 144
WIRE 720 144 704 144
WIRE 832 144 832 80
WIRE 832 144 800 144
WIRE 288 160 288 144
WIRE 224 176 224 144
WIRE -384 208 -384 160
WIRE -320 208 -320 144
WIRE -320 208 -384 208
WIRE -256 208 -256 144
WIRE -256 208 -320 208
WIRE -192 208 -256 208
WIRE 96 208 96 144
WIRE 96 208 64 208
WIRE -496 224 -496 192
WIRE -432 224 -496 224
WIRE 576 224 576 144
WIRE -384 240 -384 208
WIRE 832 240 832 144
WIRE -496 272 -496 224
WIRE -432 272 -432 224
WIRE -192 272 -432 272
WIRE 176 272 64 272
WIRE 400 272 176 272
WIRE 496 272 480 272
WIRE 176 304 176 272
WIRE 288 304 288 240
WIRE 368 304 368 -48
WIRE 368 304 288 304
WIRE 288 320 288 304
WIRE -192 336 -224 336
WIRE 112 336 112 48
WIRE 112 336 64 336
WIRE -496 400 -496 336
WIRE -192 400 -496 400
WIRE 112 400 112 336
WIRE 112 400 64 400
WIRE 176 400 176 384
WIRE 176 400 112 400
WIRE 224 400 224 240
WIRE 224 400 176 400
WIRE 288 400 224 400
WIRE 368 400 368 304
WIRE 576 400 576 320
WIRE 576 400 368 400
WIRE 832 400 832 320
WIRE 832 400 576 400
WIRE 848 400 832 400
WIRE 944 400 928 400
WIRE -496 416 -496 400
WIRE 944 416 944 400
FLAG -384 240 0
FLAG -496 416 0
FLAG -256 48 0
FLAG -496 32 0
FLAG 496 16 0
FLAG 944 416 0
SYMBOL voltage -384 64 R0
WINDOW 123 0 0 Left 0
WINDOW 39 0 0 Left 0
SYMATTR InstName V1
SYMATTR Value 5
SYMBOL cap -336 80 R0
SYMATTR InstName C1
SYMATTR Value 0.1µ
SYMBOL res -512 96 R0
SYMATTR InstName R1
SYMATTR Value 3.3k
SYMBOL cap -512 272 R0
SYMATTR InstName C2
SYMATTR Value 330p
SYMBOL voltage -496 -64 R0
WINDOW 3 24 104 Invisible 0
WINDOW 123 0 0 Left 0
WINDOW 39 0 0 Left 0
SYMATTR Value PULSE(0 5 0 50n 50n 18u 40u)
SYMATTR InstName V2
SYMBOL cap 96 -16 R0
SYMATTR InstName C3
SYMATTR Value 0.1µ
SYMBOL cap 160 -16 R0
SYMATTR InstName C4
SYMATTR Value 0.1µ
SYMBOL cap 224 -16 R0
WINDOW 0 31 -22 Left 0
WINDOW 3 26 1 Left 0
SYMATTR InstName C5
SYMATTR Value 100p
SYMBOL res 240 96 R270
WINDOW 0 33 36 VTop 0
WINDOW 3 68 81 VBottom 0
SYMATTR InstName R2
SYMATTR Value 100
SYMBOL diode 400 96 R270
WINDOW 0 32 32 VTop 0
WINDOW 3 0 32 VBottom 0
SYMATTR InstName D1
SYMATTR Value DI_US1K
SYMBOL voltage 288 144 R0
WINDOW 123 0 0 Left 0
WINDOW 39 0 0 Left 0
SYMATTR InstName V4
SYMATTR Value 18
SYMBOL voltage 288 304 R0
WINDOW 123 0 0 Left 0
WINDOW 39 0 0 Left 0
SYMATTR InstName V5
SYMATTR Value 5
SYMBOL res 160 288 R0
SYMATTR InstName R3
SYMATTR Value 47k
SYMBOL cap 208 176 R0
SYMATTR InstName C6
SYMATTR Value 0.1µ
SYMBOL res 384 288 R270
WINDOW 0 32 56 VTop 0
WINDOW 3 0 56 VBottom 0
SYMATTR InstName R4
SYMATTR Value 5
SYMBOL EXTRA\\IRF\\IGBT\\irg4pc50u 544 272 R0
SYMATTR InstName U2
SYMBOL voltage 832 224 R0
WINDOW 123 0 0 Left 0
WINDOW 39 0 0 Left 0
SYMATTR InstName V6
SYMATTR Value 100
SYMBOL ind 624 96 R270
WINDOW 0 32 56 VTop 0
WINDOW 3 5 56 VBottom 0
SYMATTR InstName L1
SYMATTR Value 1µ
SYMBOL diode 640 160 R270
WINDOW 0 32 32 VTop 0
WINDOW 3 0 32 VBottom 0
SYMATTR InstName D2
SYMATTR Value 80EBU02
SYMBOL voltage 704 144 R270
WINDOW 0 32 56 VTop 0
WINDOW 3 -32 56 VBottom 0
WINDOW 123 0 0 Left 0
WINDOW 39 0 0 Left 0
SYMATTR InstName V7
SYMATTR Value 100
SYMBOL Mylib\\HCPL316 -64 208 R0
SYMATTR InstName U1
SYMBOL res 592 16 R270
WINDOW 0 32 56 VTop 0
WINDOW 3 0 56 VBottom 0
SYMATTR InstName R5
SYMATTR Value 68
SYMBOL cap 736 16 R270
WINDOW 0 32 32 VTop 0
WINDOW 3 0 32 VBottom 0
SYMATTR InstName C7
SYMATTR Value 1n
SYMBOL voltage 368 -48 R270
WINDOW 0 32 56 VTop 0
WINDOW 3 -32 56 VBottom 0
WINDOW 123 0 0 Left 0
WINDOW 39 0 0 Left 0
SYMATTR InstName V3
SYMATTR Value 100
SYMBOL res 944 384 R90
WINDOW 0 0 56 VBottom 0
WINDOW 3 32 56 VTop 0
SYMATTR InstName R6
SYMATTR Value 1meg
TEXT -528 456 Left 0 !.tran 100m uic
