Version 4
SHEET 1 880 680
WIRE 368 -112 208 -112
WIRE 400 -112 368 -112
WIRE 496 -112 400 -112
WIRE 208 -80 208 -112
WIRE 80 -48 -144 -48
WIRE -144 -16 -144 -48
WIRE 400 -16 400 -112
WIRE -32 16 -48 16
WIRE 80 16 48 16
WIRE 368 16 368 -112
WIRE 368 16 336 16
WIRE 496 32 496 -112
WIRE -144 80 -144 64
WIRE -48 80 -48 16
WIRE -48 80 -144 80
WIRE -32 80 -48 80
WIRE 48 80 32 80
WIRE 80 80 48 80
WIRE 400 80 400 64
WIRE 400 80 336 80
WIRE -48 112 -48 80
WIRE 496 128 496 112
WIRE 48 144 48 80
WIRE 80 144 48 144
WIRE 448 144 336 144
WIRE 448 160 448 144
WIRE 80 208 64 208
WIRE 544 208 336 208
WIRE 544 224 544 208
WIRE 448 256 448 240
WIRE 80 272 16 272
WIRE 416 272 336 272
WIRE 544 320 544 304
WIRE 80 336 48 336
WIRE 368 336 336 336
WIRE -32 352 -160 352
WIRE 368 352 368 336
WIRE -160 384 -160 352
WIRE -32 400 -32 352
WIRE 80 400 -32 400
WIRE 16 464 16 272
WIRE 16 464 -160 464
WIRE 208 464 208 432
WIRE 208 464 16 464
WIRE 368 464 368 416
WIRE 368 464 208 464
WIRE 208 480 208 464
WIRE 48 512 48 336
WIRE 416 512 416 272
WIRE 416 512 48 512
FLAG 208 480 0
FLAG -48 112 0
FLAG 496 128 0
FLAG 448 256 0
FLAG 544 320 0
SYMBOL Mylib\\SG3525A 208 176 R0
SYMATTR InstName U1
SYMBOL res -48 32 R270
WINDOW 0 32 56 VTop 0
WINDOW 3 0 56 VBottom 0
SYMATTR InstName R1
SYMATTR Value 3.6k
SYMBOL cap -32 96 R270
WINDOW 0 32 32 VTop 0
WINDOW 3 0 32 VBottom 0
SYMATTR InstName C1
SYMATTR Value 10n
SYMBOL cap 352 352 R0
SYMATTR InstName C2
SYMATTR Value 10n
SYMBOL voltage 496 16 R0
WINDOW 123 0 0 Left 0
WINDOW 39 0 0 Left 0
SYMATTR InstName V1
SYMATTR Value 20
SYMBOL res 384 -32 R0
SYMATTR InstName R2
SYMATTR Value 50
SYMBOL res 432 144 R0
SYMATTR InstName R3
SYMATTR Value 50
SYMBOL voltage -144 -32 R0
WINDOW 3 24 104 Invisible 0
WINDOW 123 0 0 Left 0
WINDOW 39 0 0 Left 0
SYMATTR InstName V2
SYMATTR Value PULSE(0 3 0 10n 10n 400n 23u)
SYMBOL res 528 208 R0
SYMATTR InstName R4
SYMATTR Value 10k
SYMBOL voltage -160 368 R0
WINDOW 123 0 0 Left 0
WINDOW 39 0 0 Left 0
SYMATTR InstName V3
SYMATTR Value PULSE(0 1 1m 10n 10n 1 2)
TEXT -68 518 Left 0 !.tran 0 2m 0 100n uic
