Version 4
SHEET 1 1528 680
WIRE -384 -288 -432 -288
WIRE -240 -288 -304 -288
WIRE 48 -288 -48 -288
WIRE 224 -288 128 -288
WIRE 224 -272 224 -288
WIRE -432 -192 -432 -208
WIRE -240 -192 -432 -192
WIRE -432 -176 -432 -192
WIRE 224 -96 224 -192
WIRE 224 -96 -48 -96
WIRE 224 -64 224 -96
FLAG -432 -176 0
FLAG 224 -64 0
SYMBOL res -400 -272 R270
WINDOW 0 32 56 VTop 0
WINDOW 3 0 56 VBottom 0
SYMATTR InstName R1
SYMATTR Value 200
SYMBOL voltage -432 -304 R0
WINDOW 123 0 0 Left 0
WINDOW 39 0 0 Left 0
WINDOW 3 -228 171 Left 0
SYMATTR Value PULSE(0 5 0.12m 50n 50n 10u 10m)
SYMATTR InstName V1
SYMBOL voltage 224 -288 R0
WINDOW 123 0 0 Left 0
WINDOW 39 0 0 Left 0
SYMATTR InstName V2
SYMATTR Value SINE(0 310 50)
SYMBOL res 144 -304 R90
WINDOW 0 0 56 VBottom 0
WINDOW 3 32 56 VTop 0
SYMATTR InstName R2
SYMATTR Value 20k
SYMBOL Mylib\\MOC3082 -112 -128 R0
SYMATTR InstName U1
TEXT -464 -40 Left 0 !.tran 1
