Version 4
SHEET 1 880 696
WIRE 320 -64 144 -64
WIRE 384 -64 320 -64
WIRE 464 -64 384 -64
WIRE 464 -48 464 -64
WIRE 320 -16 320 -64
WIRE 384 -16 384 -64
WIRE 144 0 144 -64
WIRE 16 32 -336 32
WIRE 464 48 464 32
WIRE 16 96 -224 96
WIRE 320 96 320 64
WIRE 320 96 272 96
WIRE -336 128 -336 32
WIRE -224 128 -224 96
WIRE -96 160 -128 160
WIRE 16 160 -16 160
WIRE 320 160 272 160
WIRE -336 224 -336 208
WIRE -224 224 -224 208
WIRE -224 224 -336 224
WIRE -128 224 -128 160
WIRE -96 224 -128 224
WIRE 16 224 -32 224
WIRE 384 224 384 64
WIRE 384 224 272 224
WIRE -336 240 -336 224
WIRE -128 256 -128 224
WIRE 16 288 -16 288
WIRE 320 288 320 160
WIRE 320 288 272 288
WIRE 320 320 320 288
WIRE -48 352 -80 352
WIRE 16 352 -48 352
WIRE -80 384 -80 352
WIRE -16 416 -16 288
WIRE 16 416 -16 416
WIRE -48 480 -48 352
WIRE 16 480 -48 480
WIRE 304 480 272 480
WIRE -80 544 -80 464
WIRE 16 544 -80 544
WIRE -80 608 -80 544
WIRE 304 608 304 480
WIRE 304 608 -80 608
WIRE -16 640 -16 416
WIRE 144 640 144 576
WIRE 144 640 -16 640
WIRE -16 656 -16 640
FLAG -16 656 0
FLAG -128 256 0
FLAG 464 48 0
FLAG 320 320 0
FLAG -336 240 0
SYMBOL res -64 480 R180
WINDOW 0 36 76 Left 2
WINDOW 3 36 40 Left 2
SYMATTR InstName R1
SYMATTR Value 50k
SYMBOL res -112 176 R270
WINDOW 0 32 56 VTop 2
WINDOW 3 0 56 VBottom 2
SYMATTR InstName R2
SYMATTR Value 12k
SYMBOL cap -96 240 R270
WINDOW 0 32 32 VTop 2
WINDOW 3 0 32 VBottom 2
SYMATTR InstName C1
SYMATTR Value 0.01µ
SYMBOL voltage 464 -64 R0
WINDOW 123 0 0 Left 2
WINDOW 39 0 0 Left 2
SYMATTR InstName V1
SYMATTR Value 15
SYMBOL res 304 -32 R0
SYMATTR InstName R3
SYMATTR Value 150
SYMBOL res 368 -32 R0
SYMATTR InstName R4
SYMATTR Value 150
SYMBOL voltage -336 112 R0
WINDOW 3 24 104 Invisible 2
WINDOW 123 0 0 Left 2
WINDOW 39 0 0 Left 2
SYMATTR Value PULSE(0 5 0 10m 50n 0 20m)
SYMATTR InstName V2
SYMBOL voltage -224 112 R0
WINDOW 3 24 104 Invisible 2
WINDOW 123 0 0 Left 2
WINDOW 39 0 0 Left 2
SYMATTR Value PULSE(0.7 5 10m 10m 50n 0 20m)
SYMATTR InstName V3
SYMBOL TL494 144 288 R0
SYMATTR InstName U1
TEXT -72 -48 Left 0 !.tran 0 20m 0 1u
