Version 4
SHEET 1 880 744
WIRE -144 -48 -176 -48
WIRE -64 -48 -80 -48
WIRE 336 -48 176 -48
WIRE 528 -48 336 -48
WIRE 176 -16 176 -48
WIRE 528 -16 528 -48
WIRE -176 16 -176 -48
WIRE -160 16 -176 16
WIRE -64 16 -64 -48
WIRE -64 16 -80 16
WIRE -48 16 -64 16
WIRE 48 16 16 16
WIRE -176 48 -176 16
WIRE -96 80 -112 80
WIRE 48 80 -16 80
WIRE 336 80 336 -48
WIRE 336 80 304 80
WIRE 528 96 528 64
WIRE -112 144 -112 80
WIRE -80 144 -112 144
WIRE 16 144 -16 144
WIRE 48 144 16 144
WIRE 480 144 304 144
WIRE -112 160 -112 144
WIRE 16 208 16 144
WIRE 48 208 16 208
WIRE 400 208 304 208
WIRE -336 224 -384 224
WIRE -176 224 -336 224
WIRE -336 240 -336 224
WIRE -176 240 -176 224
WIRE 400 240 400 208
WIRE 480 240 480 144
WIRE -64 272 -112 272
WIRE 48 272 16 272
WIRE 336 272 304 272
WIRE 336 304 336 272
WIRE -336 336 -336 320
WIRE -288 336 -336 336
WIRE 48 336 -208 336
WIRE 400 336 400 320
WIRE 480 336 480 320
WIRE 480 336 400 336
WIRE 400 352 400 336
WIRE -176 400 -176 320
WIRE -112 400 -112 272
WIRE -112 400 -176 400
WIRE 48 400 -112 400
WIRE -336 416 -336 336
WIRE -176 416 -176 400
WIRE 48 464 -32 464
WIRE 336 464 304 464
WIRE -336 528 -336 496
WIRE -176 528 -176 496
WIRE -176 528 -336 528
WIRE -128 528 -176 528
WIRE 48 528 -48 528
WIRE -336 544 -336 528
WIRE -384 592 -384 224
WIRE 336 592 336 464
WIRE 336 592 -384 592
WIRE -32 608 -32 464
WIRE -32 688 -32 672
WIRE 176 688 176 560
WIRE 176 688 -32 688
WIRE 176 704 176 688
FLAG -176 48 0
FLAG -112 160 0
FLAG -336 544 0
FLAG 176 704 0
FLAG 336 304 0
FLAG 528 96 0
FLAG 400 352 0
SYMBOL cap -48 32 R270
WINDOW 0 32 32 VTop 0
WINDOW 3 0 32 VBottom 0
SYMATTR InstName C1
SYMATTR Value 47p
SYMBOL res -176 32 R270
WINDOW 0 32 56 VTop 0
WINDOW 3 0 56 VBottom 0
SYMATTR InstName R1
SYMATTR Value 2k
SYMBOL diode -80 -64 R90
WINDOW 0 0 32 VBottom 0
WINDOW 3 32 32 VTop 0
SYMATTR InstName D1
SYMBOL res -112 96 R270
WINDOW 0 32 56 VTop 0
WINDOW 3 0 56 VBottom 0
SYMATTR InstName R2
SYMATTR Value 10k
SYMBOL cap -80 160 R270
WINDOW 0 32 32 VTop 0
WINDOW 3 0 32 VBottom 0
SYMATTR InstName C2
SYMATTR Value 1n
SYMBOL res -80 288 R270
WINDOW 0 32 56 VTop 0
WINDOW 3 0 56 VBottom 0
SYMATTR InstName R3
SYMATTR Value 68k
SYMBOL res -192 224 R0
SYMATTR InstName R4
SYMATTR Value 4.7k
SYMBOL res -192 400 R0
SYMATTR InstName R5
SYMATTR Value 4.7k
SYMBOL res -352 224 R0
SYMATTR InstName R6
SYMATTR Value 4.7k
SYMBOL res -352 400 R0
SYMATTR InstName R7
SYMATTR Value 4.7k
SYMBOL cap -48 608 R0
SYMATTR InstName C3
SYMATTR Value 1n
SYMBOL voltage -192 336 R90
WINDOW 0 -32 56 VBottom 0
WINDOW 3 32 56 Invisible 0
WINDOW 123 0 0 Left 0
WINDOW 39 0 0 Left 0
SYMATTR InstName V1
SYMATTR Value SINE(0 60m 500)
SYMBOL voltage 528 -32 R0
WINDOW 123 0 0 Left 0
WINDOW 39 0 0 Left 0
SYMATTR InstName V2
SYMATTR Value 12
SYMBOL res 384 224 R0
SYMATTR InstName R8
SYMATTR Value 10
SYMBOL res 464 224 R0
SYMATTR InstName R9
SYMATTR Value 10
SYMBOL res -144 544 R270
WINDOW 0 32 56 VTop 0
WINDOW 3 0 56 VBottom 0
SYMATTR InstName R10
SYMATTR Value 5k
SYMBOL Mylib\\UC3825 176 272 R0
SYMATTR InstName U1
TEXT -384 728 Left 0 !.tran 10m
