Version 4
SHEET 1 4152 2196
WIRE 64 896 -640 896
WIRE 96 896 64 896
WIRE 800 896 176 896
WIRE 864 896 800 896
WIRE 992 896 928 896
WIRE 1056 896 992 896
WIRE 1152 896 1056 896
WIRE 1248 896 1152 896
WIRE 1328 896 1248 896
WIRE 1248 944 1248 896
WIRE 1056 960 1056 896
WIRE 1152 960 1152 896
WIRE 64 992 64 896
WIRE 96 992 64 992
WIRE 400 992 176 992
WIRE 864 992 400 992
WIRE 992 992 992 896
WIRE 992 992 928 992
WIRE 800 1008 800 896
WIRE 400 1024 400 992
WIRE -320 1056 -336 1056
WIRE -224 1056 -224 992
WIRE -224 1056 -240 1056
WIRE 1056 1056 1056 1024
WIRE 1152 1056 1152 1024
WIRE 1152 1056 1056 1056
WIRE 1248 1056 1248 1024
WIRE 1248 1056 1152 1056
WIRE 752 1088 592 1088
WIRE 1056 1088 1056 1056
WIRE -224 1104 -224 1056
WIRE -192 1104 -224 1104
WIRE 352 1104 160 1104
WIRE 1152 1120 1088 1120
WIRE 1280 1120 1216 1120
WIRE 656 1152 624 1152
WIRE 688 1152 656 1152
WIRE 800 1152 800 1104
WIRE 800 1152 768 1152
WIRE 928 1152 800 1152
WIRE -336 1168 -336 1056
WIRE -320 1168 -336 1168
WIRE -192 1168 -240 1168
WIRE 256 1168 160 1168
WIRE 288 1168 256 1168
WIRE 400 1168 400 1120
WIRE 400 1168 368 1168
WIRE 512 1168 400 1168
WIRE 656 1168 656 1152
WIRE 800 1168 800 1152
WIRE 256 1184 256 1168
WIRE 400 1184 400 1168
WIRE 512 1184 512 1168
WIRE 928 1184 928 1152
WIRE 1088 1184 1088 1120
WIRE 1104 1184 1088 1184
WIRE 1200 1184 1184 1184
WIRE 1280 1184 1280 1120
WIRE 1280 1184 1264 1184
WIRE 1328 1200 1328 896
WIRE -640 1232 -640 896
WIRE -608 1232 -640 1232
WIRE -496 1232 -528 1232
WIRE -416 1232 -496 1232
WIRE -320 1232 -416 1232
WIRE -192 1232 -240 1232
WIRE 224 1232 160 1232
WIRE -640 1248 -640 1232
WIRE -496 1248 -496 1232
WIRE -416 1248 -416 1232
WIRE 656 1264 656 1232
WIRE 800 1264 800 1248
WIRE 800 1264 656 1264
WIRE 256 1280 256 1248
WIRE 400 1280 400 1264
WIRE 400 1280 256 1280
WIRE 800 1280 800 1264
WIRE 1184 1280 1184 1248
WIRE -224 1296 -224 1104
WIRE -192 1296 -224 1296
WIRE 208 1296 160 1296
WIRE 400 1296 400 1280
WIRE 1280 1296 1280 1184
WIRE 1280 1296 1216 1296
WIRE 1328 1296 1328 1280
WIRE 1328 1296 1280 1296
WIRE 512 1312 512 1264
WIRE 928 1312 928 1264
WIRE 928 1312 512 1312
WIRE 1088 1312 1088 1184
WIRE 1152 1312 1088 1312
WIRE 1328 1312 1328 1296
WIRE 1232 1328 1216 1328
WIRE 224 1344 224 1232
WIRE 592 1344 592 1088
WIRE 592 1344 224 1344
WIRE -640 1360 -640 1328
WIRE -496 1360 -496 1328
WIRE -416 1360 -416 1312
WIRE -416 1360 -496 1360
WIRE -336 1360 -336 1168
WIRE -336 1360 -416 1360
WIRE -304 1360 -336 1360
WIRE -192 1360 -240 1360
WIRE 192 1360 160 1360
WIRE 208 1376 208 1296
WIRE 624 1376 624 1152
WIRE 624 1376 208 1376
WIRE 1184 1376 1184 1344
WIRE 1328 1408 1328 1392
WIRE -336 1424 -336 1360
WIRE -320 1424 -336 1424
WIRE -192 1424 -240 1424
WIRE 192 1424 192 1360
WIRE 192 1424 160 1424
WIRE 288 1424 192 1424
WIRE 1088 1424 1088 1312
WIRE 1088 1424 352 1424
WIRE 928 1440 928 1312
WIRE 1136 1440 928 1440
WIRE 1232 1440 1232 1328
WIRE 1232 1440 1216 1440
WIRE 1232 1456 1232 1440
WIRE -192 1488 -224 1488
WIRE 192 1488 160 1488
WIRE 928 1504 928 1440
WIRE 1232 1536 1232 1520
WIRE -336 1552 -336 1424
WIRE -304 1552 -336 1552
WIRE -224 1552 -224 1488
WIRE -224 1552 -240 1552
WIRE -192 1552 -224 1552
WIRE 192 1552 192 1488
WIRE 192 1552 160 1552
WIRE -336 1584 -336 1552
WIRE 192 1600 192 1552
WIRE 928 1616 928 1584
FLAG 400 1296 0
FLAG 800 1280 0
FLAG 1056 1088 0
FLAG 928 1616 0
FLAG 1184 1376 0
FLAG 1232 1536 0
FLAG 1328 1408 0
FLAG 192 1600 0
FLAG -336 1584 0
FLAG -640 1360 0
FLAG -224 992 +10V
FLAG 1184 1248 +10V
SYMBOL voltage -640 1232 R0
WINDOW 0 38 49 Left 2
WINDOW 3 24 96 Invisible 2
WINDOW 123 0 0 Left 2
WINDOW 39 0 0 Left 2
SYMATTR InstName V2
SYMATTR Value PULSE(0 24 0 1m 1m 1 2)
SYMBOL voltage -224 1056 R90
WINDOW 3 24 96 Invisible 2
WINDOW 123 0 0 Left 2
WINDOW 39 0 0 Left 2
SYMATTR Value PULSE(0 10 0.5m 100u 100u 1 2)
SYMATTR InstName V4
SYMBOL res -336 1248 R270
WINDOW 0 -22 26 VTop 2
WINDOW 3 3 72 VBottom 2
SYMATTR InstName R23
SYMATTR Value 1k
SYMBOL cap -432 1248 R0
WINDOW 3 34 38 Left 2
SYMATTR Value 0.01µ
SYMATTR InstName C8
SYMBOL res -512 1232 R0
SYMATTR InstName R24
SYMATTR Value 1.9k
SYMBOL res -624 1248 R270
WINDOW 0 38 27 VTop 2
WINDOW 3 65 83 VBottom 2
SYMATTR InstName R25
SYMATTR Value 17.2k
SYMBOL nmos 352 1024 R0
SYMATTR InstName M1
SYMATTR Value SUD40N10-25
SYMBOL res 384 1168 R0
SYMATTR InstName R26
SYMATTR Value 22m
SYMBOL res 272 1184 R270
WINDOW 0 32 56 VTop 2
WINDOW 3 0 56 VBottom 2
SYMATTR InstName R27
SYMATTR Value 1k
SYMBOL cap 240 1184 R0
SYMATTR InstName C9
SYMATTR Value 100p
SYMBOL nmos 752 1008 R0
SYMATTR InstName M2
SYMATTR Value SUD40N10-25
SYMBOL res 784 1152 R0
SYMATTR InstName R28
SYMATTR Value 22m
SYMBOL res 672 1168 R270
WINDOW 0 32 56 VTop 2
WINDOW 3 0 56 VBottom 2
SYMATTR InstName R29
SYMATTR Value 1k
SYMBOL cap 640 1168 R0
SYMATTR InstName C10
SYMATTR Value 100p
SYMBOL res -336 1440 R270
WINDOW 0 32 56 VTop 2
WINDOW 3 0 56 VBottom 2
SYMATTR InstName R30
SYMATTR Value 69.8k
SYMBOL res -336 1184 R270
WINDOW 0 32 56 VTop 2
WINDOW 3 0 56 VBottom 2
SYMATTR InstName R31
SYMATTR Value 69.8k
SYMBOL cap -304 1568 R270
WINDOW 0 32 32 VTop 2
WINDOW 3 0 32 VBottom 2
SYMATTR InstName C11
SYMATTR Value 0.1µ
SYMBOL cap -304 1376 R270
WINDOW 0 28 1 VTop 2
WINDOW 3 52 65 VBottom 2
SYMATTR InstName C12
SYMATTR Value 0.1µ
SYMBOL ind 80 1008 R270
WINDOW 0 32 56 VTop 2
WINDOW 3 5 56 VBottom 2
SYMATTR InstName L1
SYMATTR Value 15µ
SYMBOL ind 80 912 R270
WINDOW 0 32 56 VTop 2
WINDOW 3 5 56 VBottom 2
SYMATTR InstName L2
SYMATTR Value 15µ
SYMBOL schottky 864 912 R270
WINDOW 0 32 32 VTop 2
WINDOW 3 0 32 VBottom 2
SYMATTR InstName D12
SYMATTR Value PDS760
SYMATTR Description Diode
SYMATTR Type diode
SYMBOL schottky 864 1008 R270
WINDOW 0 32 32 VTop 2
WINDOW 3 0 32 VBottom 2
SYMATTR InstName D13
SYMATTR Value PDS760
SYMATTR Description Diode
SYMATTR Type diode
SYMBOL cap 1040 960 R0
SYMATTR InstName C13
SYMATTR Value 300µ
SYMATTR SpiceLine Rser=0.3
SYMBOL cap 1136 960 R0
SYMATTR InstName C14
SYMATTR Value 6.7µ
SYMBOL res 1232 928 R0
SYMATTR InstName R32
SYMATTR Value 11
SYMBOL res 496 1168 R0
SYMATTR InstName R33
SYMATTR Value 10k
SYMBOL res 912 1168 R0
SYMATTR InstName R34
SYMATTR Value 10k
SYMBOL voltage 928 1488 R0
WINDOW 123 0 0 Left 2
WINDOW 39 0 0 Left 2
SYMATTR InstName V5
SYMATTR Value 2.048
SYMBOL diode 288 1440 R270
WINDOW 0 32 32 VTop 2
WINDOW 3 0 32 VBottom 2
SYMATTR InstName D18
SYMATTR Value 1N4148
SYMBOL res 1120 1456 R270
WINDOW 0 32 56 VTop 2
WINDOW 3 0 56 VBottom 2
SYMATTR InstName R13
SYMATTR Value 4.75k
SYMBOL cap 1216 1456 R0
SYMATTR InstName C15
SYMATTR Value 0.1µ
SYMBOL res 1088 1200 R270
WINDOW 0 32 56 VTop 2
WINDOW 3 0 56 VBottom 2
SYMATTR InstName R14
SYMATTR Value 30.1k
SYMBOL cap 1200 1200 R270
WINDOW 0 32 32 VTop 2
WINDOW 3 0 32 VBottom 2
SYMATTR InstName C16
SYMATTR Value 0.1µ
SYMBOL cap 1152 1136 R270
WINDOW 0 25 0 VTop 2
WINDOW 3 52 76 VBottom 2
SYMATTR InstName C17
SYMATTR Value 470p
SYMBOL res 1312 1296 R0
SYMATTR InstName R35
SYMATTR Value 1.1k
SYMBOL res 1312 1184 R0
SYMATTR InstName R36
SYMATTR Value 24.91k
SYMBOL ValVol\\LM5032 -16 1328 R0
SYMATTR InstName U2
SYMBOL ValVol\\TI\\LM8261 1184 1248 M0
SYMATTR InstName U1
TEXT -600 1712 Left 2 !.tran 0 10m 0
