Version 4
SHEET 1 1204 680
WIRE -352 -272 -400 -272
WIRE -224 -272 -256 -272
WIRE -176 -272 -224 -272
WIRE -32 -272 -80 -272
WIRE 16 -272 -32 -272
WIRE 224 -272 176 -272
WIRE 272 -272 224 -272
WIRE 464 -272 432 -272
WIRE 512 -272 464 -272
WIRE 656 -272 608 -272
WIRE 704 -272 656 -272
WIRE 720 -272 704 -272
WIRE 896 -272 880 -272
WIRE 704 -160 704 -272
WIRE 720 -160 704 -160
WIRE 896 -160 880 -160
WIRE -400 -144 -400 -272
WIRE -304 -144 -304 -224
WIRE 560 -144 560 -224
WIRE -128 -96 -128 -224
WIRE 832 -96 -128 -96
WIRE 896 -96 896 -160
WIRE 896 -96 832 -96
WIRE 560 -80 560 -144
WIRE -400 -64 -400 -144
WIRE -304 -64 -304 -144
WIRE 560 16 560 0
WIRE -400 32 -400 16
WIRE -304 32 -304 16
FLAG -304 32 0
FLAG -400 32 0
FLAG -224 -272 Vsum
FLAG -32 -272 Vmult
FLAG 224 -272 Verror
FLAG -400 -144 Vin
FLAG -304 -144 Vnois
FLAG 464 -272 Vpi
FLAG 560 16 0
FLAG 560 -144 Vtr
FLAG 832 -96 Vcos
FLAG 896 -272 Vsin_out
FLAG 656 -272 Vang
SYMBOL voltage -400 -80 R0
WINDOW 3 24 96 Invisible 2
WINDOW 123 0 0 Left 2
WINDOW 39 0 0 Left 2
SYMATTR Value SINE(0 1 60 0 0 30)
SYMATTR InstName V1
SYMBOL voltage -304 -80 R0
WINDOW 3 24 96 Invisible 2
WINDOW 123 0 0 Left 2
WINDOW 39 0 0 Left 2
SYMATTR Value SINE(0 0.3 180)
SYMATTR InstName V2
SYMBOL ValVol\\fblocks\\lpf2 96 -176 R0
SYMATTR InstName U1
SYMATTR SpiceLine KF=1 FC=40 DR=0.7
SYMBOL ValVol\\fblocks\\pi 352 -176 R0
SYMATTR InstName U2
SYMATTR SpiceLine KP=50 TI=5m
SYMBOL ValVol\\fblocks\\vtr 560 -96 R0
SYMATTR InstName U3
SYMATTR SpiceLine Vpp=360 F={fg} D=1
SYMBOL ValVol\\fblocks\\sum -304 -336 R0
SYMATTR InstName U4
SYMBOL ValVol\\fblocks\\sum 560 -336 R0
SYMATTR InstName U5
SYMBOL ValVol\\fblocks\\mult -128 -336 R0
SYMATTR InstName U6
SYMBOL ValVol\\fblocks\\sin 800 -176 R0
SYMATTR InstName U7
SYMBOL ValVol\\fblocks\\cos 800 -64 R0
SYMATTR InstName U8
TEXT 48 -376 Left 2 !.params fg=60 kra=pi/180
TEXT -40 40 Left 2 !.tran 0.1 uic
