
.Subckt 2SC2690 1 2 3
Q 4 5 6 2SC2690_
LC 1 4 5.000N
LB 2 5 6.000N
LE 3 6 6.000N
CGCE 1 3 3.500P
CGBE 2 3 1.500P
CGBC 1 2 0.300P
.Model 2SC2690_ NPN (IS=42.382F BF=262.570 NF=1.000 VAF=421.227 IKF=1.469
+ ISE=5.086F NE=1.200 BR=45.357 NR=1.000 VAR=20.000 IKR=0.184
+ ISC=42.382F NC=1.200 RB=5.373 IRB=1.000M RBM=1.343 RE=70.000M
+ RC=0.210 CJE=0.120N VJE=0.700 MJE=0.400 TF=0.761N
+ XTF=9.367 VTF=2.000 ITF=1.501 PTF=1.000 CJC=65.000P
+ VJC=0.600 MJC=0.330 XCJC=0.650 TR=47.746N
+ CJS=0.0 VJS=0.700 MJS=0.500 XTB=1.000 EG=1.110
+ XTI=4.000 KF=5.000F AF=1.000 FC=0.750
.Ends