.subckt lm741_r in+ in-  Vcc Vss OUT
Q1 N001 in+ N007 0 NP
Q2 N001 in- N008 0 NP
Q5 N010 N009 N008 0 PN
Q6 N012 N009 N007 0 PN
Q7 N012 N015 N017 0 NP
Q8 N010 N015 N018 0 NP
Q3 Vcc N012 N015 0 NP
Q4 N001 N001 Vcc 0 PN
R1 N017 Vss 1K
R2 N015 Vss 50K
R3 N018 Vss 1K
Q9 N009 N001 Vcc 0 PN
Q10 N002 N002 Vcc 0 PN
Q11 N003 N002 Vcc 0 PN
Q12 N013 N013 Vss 0 NP
Q13 N009 N013 N019 0 NP
R4 N019 Vss 5K
Q14 N003 N004 N006 0 NP
Q15 N006 N014 N016 0 NP
Q16 N006 N010 N014 0 NP
R5 N014 Vss 50K
R6 N016 Vss 50
Q17 N010 N016 Vss 0 NP
C1 N003 N010 25p
R7 N006 N004 7.5K
R8 N003 N004 4.5K
Q18 Vcc N003 N005 0 NP
Q19 Vss N006 N011 0 PN
R9 N005 OUT 25
R10 OUT N011 50
Q20 N003 N005 OUT 0 NP
R13 N002 N013 39K
.model NP NPN(BF=200 Cje=.5p Cjc=.5p Rb=500 Cjs=0.5p TF=500p TR=100NS Vaf=200)
.model PN LPNP(BF=30 Cje=.3p Cjc=1.5p Rb=250  Cjs=0.5p ikf=10m TF=25NS TR=50NS Vaf=100)
.ends lm741_r
