* PSpice Model Editor - Version 10.5.0
*$
*PART NUMBER:NJM4556A
*BIPOLAR OPAMP
*Version:2
*Please note that the inaccuracy is involved to it when you use this model.
*Please refrain from the model's resale.
********************************************
*Model Generated by NEW JAPAN RADIO CO.,LTD*
*            All Rights Reserved           *
*   Commercial Use or Resale Restricted    *
********************************************
.SUBCKT NJM4556A OUT1 -IN1 +IN1 V- +IN2 -IN2 OUT2 V+
X1 +IN1 -IN1 V+ V- OUT1 njm4556a_s
X2 +IN2 -IN2 V+ V- OUT2 njm4556a_s
.ENDS NJM4556A
*$
* connections:     non-inverting input
*                  | inverting input
*                  | | positive power supply
*                  | | | negative power supply
*                  | | | | output
*                  | | | | |
*                  | | | | |
.subckt njm4556a_s 1 2 3 4 5
C1 11 12 {C1}
C2 15 16 {C2}
CE 10 0 {CE}
RE 10 0 {RE}
D1 16 17 DMOD1
D2 17 16 DMOD1
D3 5 18 DMOD2
D4 19 5 DMOD2
D5 10 20 DMOD2
VTL 3 20 {VTL}
GB 16 0 15 0 {GB}
GA 15 0 11 12 {GA}
GC 0 17 5 0 {GC}
GCM 0 15 10 0 {GCM}
ITL 3 10 {ITL}
Q1 11 2 13 PNP1 
Q2 12 1 14 PNP2 
RO1 16 5 {RO1}
RC 17 0 {RC}
RO2 16 0 {RO2}
R2 15 0 100E3
RC1 11 21 {RC1}
RC2 12 22 {RC1}
VRC1 21 4 {VRC}
VRC2 22 4 {VRC}
RE2 10 14 {RE1}
RE1 10 13 {RE1}
ICE 3 4 {ICE}
RP 3 4 {RP}
VE 19 4 DC {VE}
VC 3 18 DC {VC}

.MODEL DMOD1 D(T_MEASURED = 25 IS = 1.03E-30)
.MODEL DMOD2 D(T_MEASURED = 25 IS = 8.00E-16)

.MODEL PNP1 PNP(TREF = 25 IS = 8.00E-16 BF = 14230.55028)
.MODEL PNP2 PNP(TREF = 25 IS = {ISM2} BF = {BFM2})

.PARAM
+ C1   = 4.54E-10
+ C2   = 4.93E-10
+ CE   = 0.00E+00
+ GCM  = 6.26E-07
+ GA   = 1.98E-02
+ GB   = 0.90
+ GC   = 7.11E+03
+ ITL  = 1.50E-03
+ RC1  = 50.48
+ RC   = 1.41E-04
+ RE1  = 16.22
+ RE   = 1.33E+05
+ RO1  = 19
+ RO2  = 56
+ RP   = 1.73E+04
+ VC   = 2.33028
+ VE   = 2.33029
+ VTL  = 1.51E+00
+ VRC  = 1.85
+ ICE  = 2.1E-3
+ ISM2 = 8.1488554E-16
+ BFM2 = 15855.1797

.ends njm4556a_s
*$
