* TL071 Op Amp Model
* Version: 003 
* Date: 12/07/2018
* Author: Nazar Shtybel
* E-mail: nazar@s-audio.systems
* 
* The following parameters are modeled:
* 1. Open loop gain and phase with RL and CL effects
* 2. AC/DC Common mode rejection ratio
* 3. AC/DC Power supply rejection ratio
* 4. Slew rate
* 5. Input voltage noise with 1/f
* 6. Input curent noise with 1/f
* 7. Input bias current with temperature effects
* 8. Input offset current with temperature effects
* 9. Input offset voltage with temperature effects
* 10. Input impedance
* 11. Output current through the supply rails
* 12. Output current limit 
* 13. Output voltage swing from rails with RL effects
* 14. Output impedance
* 15. Quiescent current vs Supply voltage with temperature effects
* 16. Maximum supply voltage breakdown
* 17. Overload recovery / No phase reversal
* 18. Input common mode voltage range
*
* Connections:
*                 Non-Inverting Input
*                 | Inverting Input
*                 | | +Supply Voltage
*                 | | | -Supply Voltage
*                 | | | | Output
*                 | | | | | 
.SUBCKT TL071_SN  1 2 3 4 5

D1 8 10 DX
D3 7 10 DX
D2 9 8 DX
D4 9 7 DX
E4 7 19 15 0 1
R9 16 15 1
R7 11 12 1
R8 13 11 1
G3 0 15 11 14 0.00002
L1 16 0 1.17m
E1 12 0 1 0 1
E2 13 0 2 0 1
E5 19 22 21 0 1
R13 0 21 19k
E3 14 4 3 4 0.5
R10 0 16 20k
C2 0 2 3p
C1 1 0 3p
E6 22 28 3 4 0.00002
G2 2 0 6 0 0.92
R4 6 0 1E-12 TC=130e-2
I1 0 6 68
G1 1 0 6 0 1
R2 1 2 1E+12
R1 0 1 1E+12
R3 2 0 1E+12
R24 39 0 1
C4 39 0 13m
G10 0 39 36 0 1
G9 0 36 30 8 200000
R23 36 0 1
D9 36 37 DX
D11 38 36 DX
D12 38 0 DSRN
D10 0 37 DSRP
G11 0 40 39 0 1
R25 40 0 1
C5 40 0 4.5n
V3 20 0 0.235
D5 20 21 DN
R20 0 34 6E-9
V5 33 0 0.235
D7 33 34 DNC
G7 0 2 34 0 1
R19 0 32 6E-9
V4 31 0 0.235
D6 31 32 DNC
G6 0 1 32 0 1
G12 0 41 40 0 1
R26 41 0 1
C6 41 0 4.5n
C8 50 42 1p
D13 42 43 DX
E9 43 0 45 42 10
D14 44 42 DX
E10 44 0 46 42 10
R21 3 4 1Meg
D8 4 3 DB
G8 3 4 35 0 1
R22 0 35 1 TC=-2.7e-3
I3 0 35 0.00135
E8 28 30 29 0 1
R18 0 29 1 TC=5.0e-3
I2 29 0 0.0035
L5 54 5 10n
R28 50 45 1
I4 50 45 9.65
R29 50 46 1
I5 46 50 9.65
G13 0 42 41 0 1
R27 42 0 1
C7 42 0 4.5n
R5 7 1 100
R6 8 2 100
V2 3 10 -0.8
V1 9 4 3
G14 50 49 49 42 0.004
G15 51 50 42 51 0.004
R30 49 50 250
R31 50 51 250
D15 48 49 DX
D16 51 52 DX
D17 50 49 DY
D18 51 50 DY
R32 54 50 1
V7 47 48 1.3
V8 52 53 1.3
E11 3 47 50 54 240
E12 4 53 50 54 240

.model DX D(IS=1E-15)
.model DN D(KF=550e-15 T_ABS=27)
.model DY D(IS=1E-15 BV=50)
.model DB D(BV=46 T_ABS=27)
.model DNC D(KF=100e-2 T_ABS=27)
.model DSRP D(BV=160K)
.model DSRN D(BV=160K)

.ENDS TL071_SN


* OP07 Op Amp Model
* Version: 001 
* Date: 01/21/2019
* Author: Nazar Shtybel
* E-mail: nazar@s-audio.systems
* 
* OP07 - TI/AD
*
* The following parameters are modeled:
* 1. Open loop gain and phase with RL and CL effects
* 2. AC/DC Common mode rejection ratio
* 3. AC/DC Power supply rejection ratio
* 4. Slew rate
* 5. Input voltage noise with 1/f
* 6. Input curent noise with 1/f
* 7. Input bias current with temperature effects
* 8. Input offset current with temperature effects
* 9. Input offset voltage with temperature effects
* 10. Input impedance
* 11. Output current through the supply rails
* 12. Output current limit 
* 13. Output voltage swing from rails with RL effects
* 14. Output impedance
* 15. Quiescent current vs Supply voltage
* 16. Maximum supply voltage breakdown
* 17. Overload recovery / No phase reversal
* 18. Input common mode voltage range
*
* OP07 +-15V Supply
* Connections:
*                Non-Inverting Input
*                | Inverting Input
*                | | +Supply Voltage
*                | | | -Supply Voltage
*                | | | | Output
*                | | | | | 
.SUBCKT OP07_SN  1 2 3 4 5

D1 8 10 DX
D3 7 10 DX
D2 9 8 DX
D4 9 7 DX
E4 7 19 15 0 1
R9 16 15 1
R7 11 12 1
R8 13 11 1
G3 0 15 11 14 0.000001
L1 16 0 4.5m
E1 12 0 1 0 1
E2 13 0 2 0 1
E5 19 22 21 0 1
R13 0 21 5.6k
E3 14 4 3 4 0.5
R10 0 16 100k
C2 0 2 3p
C1 1 0 3p
C3 1 2 1p
E6 22 28 23 0 1
G4 0 23 3 4 0.000009
R14 24 23 1
L3 24 0 25m
R15 0 24 100k
G2 2 0 6 0 0.58
R4 6 0 1E-12 TC=-9e-3
I1 0 6 1900
G1 1 0 6 0 1
R2 1 2 33Meg
R1 0 1 100E+12
R3 2 0 100E+12
R24 39 0 1
C4 39 0 79m
G10 0 39 36 0 1
G9 0 36 30 8 400000
R23 36 0 1
D9 36 37 DX
D11 38 36 DX
D12 38 0 DSRN
D10 0 37 DSRP
G11 0 40 39 0 1
R25 40 0 1
C5 40 0 40n
V3 20 0 0.235
D5 20 21 DN
R20 0 34 1E-6
V5 33 0 0.235
D7 33 34 DNC
G7 0 2 34 0 1
R19 0 32 1E-6
V4 31 0 0.235
D6 31 32 DNC
G6 0 1 32 0 1
G12 0 41 40 0 1
R26 41 0 1
C6 41 0 40n
C8 50 42 1p
D13 42 43 DX
E9 43 0 45 42 20
D14 44 42 DX
E10 44 0 46 42 100
R21 3 4 1Meg
D8 4 3 DB
G8 3 4 35 0 1
R22 0 35 1
I3 0 35 0.0026
E8 28 30 29 0 1
R18 0 29 1 TC=1.7e-2
I2 29 0 0.00003
L5 54 5 10n
R28 50 45 1
I4 50 45 2.0
R29 50 46 1
I5 46 50 2.3
G13 0 42 41 0 1
R27 42 0 1
C7 42 0 40n
R5 7 1 100
R6 8 2 100
V2 3 10 2.2
V1 9 4 2.2
G14 50 49 49 42 0.0135135
G15 51 50 42 51 0.0135135
R30 49 50 74
R31 50 51 74
D15 48 49 DX
D16 51 52 DX
D17 50 49 DY
D18 51 50 DY
R32 54 50 1
V7 47 48 1.3
V8 52 53 2
E11 3 47 50 54 148
E12 4 53 50 54 74

.model DX D(IS=1E-15)
.model DN D(KF=550e-16 T_ABS=27)
.model DY D(IS=1E-15 BV=50)
.model DB D(BV=46 T_ABS=27)
.model DNC D(KF=120e-4 T_ABS=27)
.model DSRP D(BV=23700)
.model DSRN D(BV=23700)

.ENDS OP07_SN

* OP07 +-5V Supply
.SUBCKT OP07_5V_SN  1 2 3 4 5

D1 8 10 DX
D3 7 10 DX
D2 9 8 DX
D4 9 7 DX
E4 7 19 15 0 1
R9 16 15 1
R7 11 12 1
R8 13 11 1
G3 0 15 11 14 0.000001
L1 16 0 4.5m
E1 12 0 1 0 1
E2 13 0 2 0 1
E5 19 22 21 0 1
R13 0 21 5.6k
E3 14 4 3 4 0.5
R10 0 16 100k
C2 0 2 3p
C1 1 0 3p
C3 1 2 1p
E6 22 28 23 0 1
G4 0 23 3 4 0.000009
R14 24 23 1
L3 24 0 25m
R15 0 24 100k
G2 2 0 6 0 0.58
R4 6 0 1E-12 TC=-9e-3
I1 0 6 1900
G1 1 0 6 0 1
R2 1 2 33Meg
R1 0 1 100E+12
R3 2 0 100E+12
R24 39 0 1
C4 39 0 165m
G10 0 39 36 0 1
G9 0 36 30 8 400000
R23 36 0 1
D9 36 37 DX
D11 38 36 DX
D12 38 0 DSRN
D10 0 37 DSRP
G11 0 40 39 0 1
R25 40 0 1
C5 40 0 60n
V3 20 0 0.235
D5 20 21 DN
R20 0 34 1E-6
V5 33 0 0.235
D7 33 34 DNC
G7 0 2 34 0 1
R19 0 32 1E-6
V4 31 0 0.235
D6 31 32 DNC
G6 0 1 32 0 1
G12 0 41 40 0 1
R26 41 0 1
C6 41 0 60n
C8 50 42 1p
D13 42 43 DX
E9 43 0 45 42 20
D14 44 42 DX
E10 44 0 46 42 100
R21 3 4 1Meg
D8 4 3 DB
G8 3 4 35 0 1
R22 0 35 1
I3 0 35 0.0026
E8 28 30 29 0 1
R18 0 29 1 TC=1.7e-2
I2 29 0 0.00003
L5 54 5 10n
R28 50 45 1
I4 50 45 2.0
R29 50 46 1
I5 46 50 2.3
G13 0 42 41 0 1
R27 42 0 1
C7 42 0 60n
R5 7 1 100
R6 8 2 100
V2 3 10 2.2
V1 9 4 2.2
G14 50 49 49 42 0.0125
G15 51 50 42 51 0.0125
R30 49 50 80
R31 50 51 80
D15 48 49 DX
D16 51 52 DX
D17 50 49 DY
D18 51 50 DY
R32 54 50 1
V7 47 48 1.3
V8 52 53 2
E11 3 47 50 54 160
E12 4 53 50 54 80

.model DX D(IS=1E-15)
.model DN D(KF=550e-16 T_ABS=27)
.model DY D(IS=1E-15 BV=50)
.model DB D(BV=46 T_ABS=27)
.model DNC D(KF=120e-4 T_ABS=27)
.model DSRP D(BV=23700)
.model DSRN D(BV=23700)

.ENDS OP07_5V_SN

* LF356 Op Amp Model
* Version: 003 
* Date: 12/07/2018
* Author: Nazar Shtybel
* E-mail: nazar@s-audio.systems
* 
* The following parameters are modeled:
* 1. Open loop gain and phase with RL and CL effects
* 2. AC/DC Common mode rejection ratio
* 3. AC/DC Power supply rejection ratio
* 4. Slew rate
* 5. Input voltage noise with 1/f
* 6. Input curent noise with 1/f
* 7. Input bias current with common mode and temperature effects
* 8. Input offset current with temperature effects
* 9. Input offset voltage with temperature effects
* 10. Input impedance
* 11. Output current through the supply rails
* 12. Output current limit 
* 13. Output voltage swing from rails with RL effects
* 14. Output impedance
* 15. Quiescent current vs Supply voltage with temperature effects
* 16. Maximum supply voltage breakdown
* 17. Overload recovery / No phase reversal
* 18. Input common mode voltage range
*
* Connections:
*                 Non-Inverting Input
*                 | Inverting Input
*                 | | +Supply Voltage
*                 | | | -Supply Voltage
*                 | | | | Output
*                 | | | | | 
.SUBCKT LF356_SN  1 2 3 4 5

D1 8 10 DX
D3 7 10 DX
D2 9 8 DX
D4 9 7 DX
E4 7 19 15 0 1
R9 16 15 1
R7 11 12 1
R8 13 11 1
G3 0 15 11 14 0.000006
L1 16 0 0.22m
E1 12 0 1 0 1
E2 13 0 2 0 1
E5 19 22 21 0 1
R13 0 21 8k
E3 14 4 3 4 0.5
R10 0 16 1000k
C2 0 2 3p
C1 1 0 3p
E6 22 28 3 4 0.00002
G2 2 0 6 0 0.87
R4 6 0 1E-12 TC=1e-2
I1 0 6 30
G1 1 0 6 0 1
R2 1 2 0.5E+12
R1 0 1 0.5E+12
R3 2 0 0.5E+12
R24 39 0 1
C4 39 0 5600u
G10 0 39 36 0 1
G9 0 36 30 8 200000
R23 36 0 1
D9 36 37 DX
D11 38 36 DX
D12 38 0 DSRN
D10 0 37 DSRP
G11 0 40 39 0 1
R25 40 0 1
C5 40 0 3.8n
V3 20 0 0.235
D5 20 21 DN
R20 0 34 6E-9
V5 33 0 0.235
D7 33 34 DNC
G7 0 2 34 0 1
R19 0 32 6E-9
V4 31 0 0.235
D6 31 32 DNC
G6 0 1 32 0 1
G12 0 41 40 0 1
R26 41 0 1
C6 41 0 3.8n
C8 50 42 1p
D13 42 43 DX
E9 43 0 45 42 100
D14 44 42 DX
E10 44 0 46 42 100
R21 3 4 16.6k
D8 4 3 DB
G8 3 4 35 0 1
R22 0 35 1 TC=-3.0e-3
I3 0 35 0.003
E8 28 30 29 0 1
R18 0 29 1 TC=-1.1e-3
I2 29 0 0.003
L5 54 5 10n
R28 50 45 1 TC=-3.4e-3
I4 50 45 1
R29 50 46 1 TC=-3.4e-3
I5 46 50 1
G13 0 42 41 0 1
R27 42 0 1
C7 42 0 3.8n
R5 7 1 100
R6 8 2 100
V2 3 10 -0.7
V1 9 4 2.5
G14 50 49 49 42 0.03125
G15 51 50 42 51 0.03125
R30 49 50 32
R31 50 51 32
D15 48 49 DX
D16 51 52 DX
D17 50 49 DY
D18 51 50 DY
R32 54 50 1
V7 47 48 1.25
V8 52 53 1.25
E11 3 47 50 54 100
E12 4 53 50 54 300

.model DX D(IS=1E-15)
.model DN D(KF=250e-14 T_ABS=27)
.model DY D(IS=1E-15 BV=50)
.model DB D(BV=46 T_ABS=27)
.model DNC D(KF=100e-2 T_ABS=27)
.model DSRP D(BV=78K)
.model DSRN D(BV=170K)

.ENDS LF356_SN

* NE5534 Op Amp Model
* Version: 006 
* Date: 5/5/2023
* Author: Nazar Shtybel
* E-mail: nazar@s-audio.systems
*
* NJM5534_SN - JRC
* NE5534ON_SN - ON Semiconductor
* NE5534PH_SN - Philips
* NE5534TI_SN - Texas Instruments
* 
* The following parameters are modeled:
* 1. Open loop gain and phase with RL and CL effects
* 2. AC/DC Common mode rejection ratio
* 3. AC/DC Power supply rejection ratio
* 4. Slew rate
* 5. Input voltage noise with 1/f
* 6. Input curent noise with 1/f
* 7. Input bias current with common mode and temperature effects
* 8. Input offset current with temperature effects
* 9. Input offset voltage with temperature effects
* 10. Input impedance
* 11. Output current through the supply rails
* 12. Output current limit 
* 13. Output voltage swing from rails with RL effects
* 14. Output impedance
* 15. Quiescent current vs Supply voltage with temperature effects
* 16. Maximum supply voltage breakdown
* 17. Overload recovery
* 18. Input common mode voltage range
*
* Connections:
*                  Non-Inverting Input
*                  | Inverting Input
*                  | | +Supply Voltage
*                  | | | -Supply Voltage
*                  | | | | Output
*                  | | | | | 
.SUBCKT NJM5534_SN 1 2 3 4 5

D1 8 10 DX
D3 7 10 DX
D2 9 8 DX
D4 9 7 DX
E4 7 19 15 0 1
R9 16 15 1
R7 11 12 1
R8 13 11 1
G3 0 15 11 14 0.000001
L1 16 0 108u
E1 12 0 1 0 1
E2 13 0 2 0 1
E5 19 22 21 0 1
R13 0 21 0.55k
E3 14 4 3 4 0.5
R10 0 16 1000k
C2 0 2 4.5p
C1 1 0 4.5p
C3 1 2 5.5p
E6 22 25 26 0 1
G2 2 0 6 0 1
R4 6 0 1E-6 TC=-5e-3
I1 0 6 0.5
G1 1 0 6 0 0.99
R2 1 2 200k
R1 0 1 500Meg
R3 2 0 500Meg
R24 39 0 1
C4 39 0 175E-5
G10 0 39 36 0 1
G9 0 36 30 8 700000
R23 36 0 1
D9 36 37 DX
D11 38 36 DX
G16 49 3 3 42 0.025
G17 4 49 42 4 0.025
R32 3 49 40
R33 49 4 40
R34 56 49 1
G15 48 4 42 49 0.01
G14 47 4 49 42 0.01
D17 3 48 DX
D15 3 47 DX
D16 4 47 DY
D18 4 48 DY
D19 49 54 DX
E13 54 3 51 49 1000
V7 50 51 0.73
D20 55 49 DX
E14 55 4 53 49 1000
V8 53 52 1.32
E11 3 50 49 56 20
G11 0 40 39 0 1
R25 40 0 1
C5 57 0 1.75E-7
V3 20 0 0.235
D5 20 21 DN
R30 47 0 1G
R31 48 0 1G
R20 0 34 0.000001
V5 33 0 0.235
D7 33 34 DNC
G7 0 2 34 0 1
R19 0 32 0.000001
V4 31 0 0.235
D6 31 32 DNC
G6 0 1 32 0 1
G12 0 41 40 0 1
R26 41 0 1
C6 41 0 1700p
C8 49 42 1p
D13 42 43 DX
E9 43 0 45 42 1000
D14 44 42 DX
E10 44 0 46 42 1000
R21 3 4 36k
D8 4 3 DB
G8 3 4 35 0 1
R22 0 35 1 TC=1.5e-3
I3 0 35 0.0032
E8 25 30 29 0 1
R18 0 29 1
I2 29 0 0.0008
L5 56 5 290n
R35 56 5 200
E12 4 52 49 56 20
G4 0 23 3 4 0.000003
R14 24 23 1
L3 24 0 2000u
R15 0 24 10k
G5 0 26 23 0 1
R16 27 26 1
L4 27 0 0.1u
R17 0 27 30
R28 49 45 1
I4 49 45 0.92
R29 49 46 1
I5 46 49 0.72
G13 0 42 41 0 1
R27 42 0 1
C7 42 0 1700p
R5 7 1 50
R6 8 2 50
V2 3 10 2.0
V1 9 4 1.31
R36 40 57 0.8
D10 0 37 DSRP
D12 38 0 DSRN
D21 7 8 DY
D22 8 7 DY

.model DX D(IS=1E-15)
.model DY D(IS=1E-15 BV=50)
.model DN D(KF=220e-13 T_ABS=27)
.model DNC D(KF=70e-2 T_ABS=27)
.model DB D(BV=46 T_ABS=27)
.model DSRP D(BV=24.8K T_ABS=27)
.model DSRN D(BV=24.8K T_ABS=27)

.ENDS NJM5534_SN


.SUBCKT NE5534ON_SN 1 2 3 4 5

D1 8 10 DX
D3 7 10 DX
D2 9 8 DX
D4 9 7 DX
E4 7 19 15 0 1
R9 16 15 1
R7 11 12 1
R8 13 11 1
G3 0 15 11 14 0.000001
L1 16 0 200u
E1 12 0 1 0 1
E2 13 0 2 0 1
E5 19 22 21 0 1
R13 0 21 0.85k
E3 14 4 3 4 0.5
R10 0 16 1000k
C2 0 2 3.5p
C1 1 0 3.5p
C3 1 2 4.5p
E6 22 25 26 0 1
G2 2 0 6 0 1
R4 6 0 1E-6 TC=-5e-3
I1 0 6 0.5
G1 1 0 6 0 0.99
R2 1 2 200k
R1 0 1 400Meg
R3 2 0 400Meg
R24 39 0 1
C4 39 0 389E-5
G10 0 39 36 0 1
G9 0 36 30 8 1000000
R23 36 0 1
D9 36 37 DX
D11 38 36 DX
G16 49 3 3 42 0.03125
G17 4 49 42 4 0.03125
R32 3 49 32
R33 49 4 32
R34 56 49 1
G15 48 4 42 49 0.01
G14 47 4 49 42 0.01
D17 3 48 DX
D15 3 47 DX
D16 4 47 DY
D18 4 48 DY
D19 49 54 DX
E13 54 3 51 49 1000
V7 50 51 0.75
D20 55 49 DX
E14 55 4 53 49 1000
V8 53 52 1.37
E11 3 50 49 56 15
G11 0 40 39 0 1
R25 40 0 1
C5 57 0 2.5E-7
V3 20 0 0.235
D5 20 21 DN
R30 47 0 1G
R31 48 0 1G
R20 0 34 0.00001
V5 33 0 0.235
D7 33 34 DNC
G7 0 2 34 0 1
R19 0 32 0.00001
V4 31 0 0.235
D6 31 32 DNC
G6 0 1 32 0 1
G12 0 41 40 0 1
R26 41 0 1
C6 41 0 1500p
C8 49 42 1p
D13 42 43 DX
E9 43 0 45 42 1000
D14 44 42 DX
E10 44 0 46 42 1000
R21 3 4 36k
D8 4 3 DB
G8 3 4 35 0 1
R22 0 35 1 TC=1.5e-3
I3 0 35 0.0032
E8 25 30 29 0 1
R18 0 29 1
I2 29 0 0.0008
L5 56 5 100n
R35 56 5 75
E12 4 52 49 56 15
G4 0 23 3 4 0.000003
R14 24 23 1
L3 24 0 2800u
R15 0 24 10k
G5 0 26 23 0 1
R16 27 26 1
L4 27 0 0.13u
R17 0 27 200
R28 49 45 1
I4 49 45 1.12
R29 49 46 1
I5 46 49 0.89
G13 0 42 41 0 1
R27 42 0 1
C7 42 0 1500p
R5 7 1 50
R6 8 2 50
V2 3 10 1.7
V1 9 4 1.32
R36 40 57 0.59
D10 0 37 DSRP
D12 38 0 DSRN
D21 7 8 DY
D22 8 7 DY

.model DX D(IS=1E-15)
.model DY D(IS=1E-15 BV=50)
.model DN D(KF=155e-13 T_ABS=27)
.model DNC D(KF=20e-3 T_ABS=27)
.model DB D(BV=46 T_ABS=27)
.model DSRP D(BV=53K T_ABS=27)
.model DSRN D(BV=53K T_ABS=27)

.ENDS NE5534ON_SN


.SUBCKT NE5534PH_SN 1 2 3 4 5

D1 8 10 DX
D3 7 10 DX
D2 9 8 DX
D4 9 7 DX
E4 7 19 15 0 1
R9 16 15 1
R7 11 12 1
R8 13 11 1
G3 0 15 11 14 0.000004
L1 16 0 40u
E1 12 0 1 0 1
E2 13 0 2 0 1
E5 19 22 21 0 1
R13 0 21 0.85k
E3 14 4 3 4 0.5
R10 0 16 1000k
C2 0 2 4.5p
C1 1 0 4.5p
C3 1 2 5.5p
E6 22 25 26 0 1
G2 2 0 6 0 1
R4 6 0 1E-6 TC=-3e-3
I1 0 6 0.35
G1 1 0 6 0 0.99
R2 1 2 100k
R1 0 1 350Meg
R3 2 0 350Meg
R24 39 0 1
C4 39 0 184E-5
G10 0 39 36 0 1
G9 0 36 30 8 900000
R23 36 0 1
D9 36 37 DX
D11 38 36 DX
G16 49 3 3 42 0.025
G17 4 49 42 4 0.025
R32 3 49 40
R33 49 4 40
R34 56 49 1
G15 48 4 42 49 0.01
G14 47 4 49 42 0.01
D17 3 48 DX
D15 3 47 DX
D16 4 47 DY
D18 4 48 DY
D19 49 54 DX
E13 54 3 51 49 1000
V7 50 51 0.72
D20 55 49 DX
E14 55 4 53 49 1000
V8 53 52 1.28
E11 3 50 49 56 22
G11 0 40 39 0 1
R25 40 0 1
C5 57 0 1.75E-7
V3 20 0 0.235
D5 20 21 DN
R30 47 0 1G
R31 48 0 1G
R20 0 34 0.00001
V5 33 0 0.235
D7 33 34 DNC
G7 0 2 34 0 1
R19 0 32 0.00001
V4 31 0 0.235
D6 31 32 DNC
G6 0 1 32 0 1
G12 0 41 40 0 1
R26 41 0 1
C6 41 0 1750p
C8 49 42 1p
D13 42 43 DX
E9 43 0 45 42 1000
D14 44 42 DX
E10 44 0 46 42 1000
R21 3 4 36k
D8 4 3 DB
G8 3 4 35 0 1
R22 0 35 1 TC=1.5e-3
I3 0 35 0.0032
E8 25 30 29 0 1
R18 0 29 1
I2 29 0 0.0008
L5 56 5 150n
R35 56 5 40
E12 4 52 49 56 22
G4 0 23 3 4 0.000005
R14 24 23 1
L3 24 0 1000u
R15 0 24 10k
G5 0 26 23 0 1
R16 27 26 1
L4 27 0 0.04u
R17 0 27 12
R28 49 45 1
I4 49 45 1.0
R29 49 46 1
I5 46 49 1.0
G13 0 42 41 0 1
R27 42 0 1
C7 42 0 1750p
R5 7 1 50
R6 8 2 50
V2 3 10 2.0
V1 9 4 1.245
R36 40 57 0.85
D10 0 37 DSRP
D12 38 0 DSRN
D21 7 8 DY
D22 8 7 DY

.model DX D(IS=1E-15)
.model DY D(IS=1E-15 BV=50)
.model DN D(KF=155e-13 T_ABS=27)
.model DNC D(KF=20e-3 T_ABS=27)
.model DB D(BV=46 T_ABS=27)
.model DSRP D(BV=25.9K T_ABS=27)
.model DSRN D(BV=25.9K T_ABS=27)

.ENDS NE5534PH_SN

.SUBCKT NE5534TI_SN 1 2 3 4 5

D1 8 10 DX
D3 7 10 DX
D2 9 8 DX
D4 9 7 DX
E4 7 19 15 0 1
R9 16 15 1
R7 11 12 1
R8 13 11 1
G3 0 15 11 14 0.000001
L1 16 0 124u
E1 12 0 1 0 1
E2 13 0 2 0 1
E5 19 22 21 0 1
R13 0 21 0.85k
E3 14 4 3 4 0.5
R10 0 16 1000k
C2 0 2 3.5p
C1 1 0 3.5p
C3 1 2 4.5p
E6 22 25 26 0 1
G2 2 0 6 0 1
R4 6 0 1E-6 TC=-2.5e-3
I1 0 6 0.76
G1 1 0 6 0 0.99
R2 1 2 115k
R1 0 1 185Meg
R3 2 0 185Meg
R24 39 0 1
C4 39 0 232E-5
G10 0 39 36 0 1
G9 0 36 30 8 700000
R23 36 0 1
D9 36 37 DX
D11 38 36 DX
G16 49 3 3 42 0.025
G17 4 49 42 4 0.025
R32 3 49 40
R33 49 4 40
R34 56 49 1
G15 48 4 42 49 0.01
G14 47 4 49 42 0.01
D17 3 48 DX
D15 3 47 DX
D16 4 47 DY
D18 4 48 DY
D19 49 54 DX
E13 54 3 51 49 1000
V7 50 51 0.75
D20 55 49 DX
E14 55 4 53 49 1000
V8 53 52 1.33
E11 3 50 49 56 18
G11 0 40 39 0 1
R25 40 0 1
C5 57 0 1.75E-7
V3 20 0 0.235
D5 20 21 DN
R30 47 0 1G
R31 48 0 1G
R20 0 34 0.00001
V5 33 0 0.235
D7 33 34 DNC
G7 0 2 34 0 1
R19 0 32 0.00001
V4 31 0 0.235
D6 31 32 DNC
G6 0 1 32 0 1
G12 0 41 40 0 1
R26 41 0 1
C6 41 0 1500p
C8 49 42 1p
D13 42 43 DX
E9 43 0 45 42 1000
D14 44 42 DX
E10 44 0 46 42 1000
R21 3 4 36k
D8 4 3 DB
G8 3 4 35 0 1
R22 0 35 1 TC=1.5e-3
I3 0 35 0.0034
E8 25 30 29 0 1
R18 0 29 1
I2 29 0 0.0003
L5 56 5 120n
R35 56 5 60
E12 4 52 49 56 18
G4 0 23 3 4 0.000003
R14 24 23 1
L3 24 0 2000u
R15 0 24 10k
G5 0 26 23 0 1
R16 27 26 1
L4 27 0 0.085u
R17 0 27 50
R28 49 45 1
I4 49 45 1
R29 49 46 1
I5 46 49 0.84
G13 0 42 41 0 1
R27 42 0 1
C7 42 0 1500p
R5 7 1 50
R6 8 2 50
V2 3 10 2.38
V1 9 4 1.6
R36 40 57 0.85
D10 0 37 DSRP
D12 38 0 DSRN
D21 7 8 DY
D22 8 7 DY

.model DX D(IS=1E-15)
.model DY D(IS=1E-15 BV=50)
.model DN D(KF=155e-13 T_ABS=27)
.model DNC D(KF=20e-3 T_ABS=27)
.model DB D(BV=46 T_ABS=27)
.model DSRP D(BV=30.5K T_ABS=27)
.model DSRN D(BV=30.5K T_ABS=27)

.ENDS NE5534TI_SN

* NE5532 Op Amp Model
* Version: 005 
* Date: 5/5/2023
* Author: Nazar Shtybel
* E-mail: nazar@s-audio.systems
*
* NJM5532_SN - JRC
* NE5532TI_SN - Texas Instruments
* 
* The following parameters are modeled:
* 1. Open loop gain and phase with RL and CL effects
* 2. AC/DC Common mode rejection ratio
* 3. AC/DC Power supply rejection ratio
* 4. Slew rate
* 5. Input voltage noise with 1/f
* 6. Input curent noise with 1/f
* 7. Input bias current with common mode and temperature effects
* 8. Input offset current with temperature effects
* 9. Input offset voltage with temperature effects
* 10. Input impedance
* 11. Output current through the supply rails
* 12. Output current limit 
* 13. Output voltage swing from rails with RL effects
* 14. Output impedance
* 15. Quiescent current vs Supply voltage with temperature effects
* 16. Maximum supply voltage breakdown
* 17. Overload recovery / No phase reversal
* 18. Input common mode voltage range
*
* Connections:
*                  Non-Inverting Input
*                  | Inverting Input
*                  | | +Supply Voltage
*                  | | | -Supply Voltage
*                  | | | | Output
*                  | | | | | 
.SUBCKT NJM5532_SN 1 2 3 4 5

D1 8 10 DX
D3 7 10 DX
D2 9 8 DX
D4 9 7 DX
E4 7 19 15 0 1
R9 16 15 1
R7 11 12 1
R8 13 11 1
G3 0 15 11 14 0.000001
L1 16 0 320u
E1 12 0 1 0 1
E2 13 0 2 0 1
E5 19 22 21 0 1
R13 0 21 1.4k
E3 14 4 3 4 0.5
R10 0 16 1000k
C2 0 2 4p
C1 1 0 4p
C3 1 2 4p
E6 22 25 26 0 1
G2 2 0 6 0 1
R4 6 0 1E-6 TC=-3.1e-3
I1 0 6 0.21
G1 1 0 6 0 0.98
R2 1 2 150k
R1 0 1 900Meg
R3 2 0 900Meg
R24 39 0 1
C4 39 0 554E-5
G10 0 39 36 0 1
G9 0 36 30 8 1000000
R23 36 0 1
D9 36 37 DX
D11 38 36 DX
G16 49 3 3 42 0.025
G17 4 49 42 4 0.025
R32 3 49 40
R33 49 4 40
R34 56 49 1
G15 48 4 42 49 0.01
G14 47 4 49 42 0.01
D17 3 48 DX
D15 3 47 DX
D16 4 47 DY
D18 4 48 DY
D19 49 54 DX
E13 54 3 51 49 1000
V7 50 51 0.72
D20 55 49 DX
E14 55 4 53 49 1000
V8 53 52 1.32
E11 3 50 49 56 20
G11 0 40 39 0 1
R25 40 0 1
C5 57 0 1.75E-7
V3 20 0 0.235
D5 20 21 DN
R30 47 0 1G
R31 48 0 1G
R20 0 34 0.00002
V5 33 0 0.235
D7 33 34 DNC
G7 0 2 34 0 1
R19 0 32 0.00002
V4 31 0 0.235
D6 31 32 DNC
G6 0 1 32 0 1
G12 0 41 40 0 1
R26 41 0 1
C6 41 0 1000p
C8 49 42 1p
D13 42 43 DX
E9 43 0 45 42 1000
D14 44 42 DX
E10 44 0 46 42 1000
R21 3 4 36k
D8 4 3 DB
G8 3 4 35 0 1
R22 0 35 1 TC=1.5e-3
I3 0 35 0.0034
E8 25 30 29 0 1
R18 0 29 1
I2 29 0 0.0006
L5 56 5 300n
R35 56 5 30
E12 4 52 49 56 20
G4 0 23 3 4 0.000003
R14 24 23 1
L3 24 0 3600u
R15 0 24 10k
G5 0 26 23 0 1
R16 27 26 1
L4 27 0 0.5u
R17 0 27 50
R28 49 45 1
I4 49 45 0.84
R29 49 46 1
I5 46 49 0.44
G13 0 42 41 0 1
R27 42 0 1
C7 42 0 1000p
R5 7 1 50
R6 8 2 50
V2 3 10 2.37
V1 9 4 1.26
R36 40 57 0.52
D10 0 37 DSRP
D12 38 0 DSRN
D21 7 8 DY
D22 8 7 DY

.model DX D(IS=1E-15)
.model DY D(IS=1E-15 BV=50)
.model DN D(KF=70e-13 T_ABS=27)
.model DNC D(KF=60e-4 T_ABS=27)
.model DB D(BV=46 T_ABS=27)
.model DSRP D(BV=44.2K T_ABS=27)
.model DSRN D(BV=44.2K T_ABS=27)

.ENDS NJM5532_SN


.SUBCKT NE5532TI_SN 1 2 3 4 5

D1 8 10 DX
D3 7 10 DX
D2 9 8 DX
D4 9 7 DX
E4 7 19 15 0 1
R9 16 15 1
R7 11 12 1
R8 13 11 1
G3 0 15 11 14 0.000001
L1 16 0 320u
E1 12 0 1 0 1
E2 13 0 2 0 1
E5 19 22 21 0 1
R13 0 21 1.4k
E3 14 4 3 4 0.5
R10 0 16 1000k
C2 0 2 3.5p
C1 1 0 3.5p
C3 1 2 3.5p
E6 22 25 26 0 1
G2 2 0 6 0 1
R4 6 0 1E-6 TC=-3.1e-3
I1 0 6 0.21
G1 1 0 6 0 0.98
R2 1 2 150k
R1 0 1 550Meg
R3 2 0 550Meg
R24 39 0 1
C4 39 0 807E-5
G10 0 39 36 0 1
G9 0 36 30 8 1000000
R23 36 0 1
D9 36 37 DX
D11 38 36 DX
G16 49 3 3 42 0.025
G17 4 49 42 4 0.025
R32 3 49 40
R33 49 4 40
R34 56 49 1
G15 48 4 42 49 0.01
G14 47 4 49 42 0.01
D17 3 48 DX
D15 3 47 DX
D16 4 47 DY
D18 4 48 DY
D19 49 54 DX
E13 54 3 51 49 1000
V7 50 51 0.74
D20 55 49 DX
E14 55 4 53 49 1000
V8 53 52 1.32
E11 3 50 49 56 18
G11 0 40 39 0 1
R25 40 0 1
C5 57 0 1.75E-7
V3 20 0 0.235
D5 20 21 DN
R30 47 0 1G
R31 48 0 1G
R20 0 34 0.00002
V5 33 0 0.235
D7 33 34 DNC
G7 0 2 34 0 1
R19 0 32 0.00002
V4 31 0 0.235
D6 31 32 DNC
G6 0 1 32 0 1
G12 0 41 40 0 1
R26 41 0 1
C6 41 0 750p
C8 49 42 1p
D13 42 43 DX
E9 43 0 45 42 1000
D14 44 42 DX
E10 44 0 46 42 1000
R21 3 4 36k
D8 4 3 DB
G8 3 4 35 0 1
R22 0 35 1 TC=1.5e-3
I3 0 35 0.003
E8 25 30 29 0 1
R18 0 29 1
I2 29 0 0.0006
L5 56 5 300n
R35 56 5 50
E12 4 52 49 56 18
G4 0 23 3 4 0.000003
R14 24 23 1
L3 24 0 4800u
R15 0 24 10k
G5 0 26 23 0 1
R16 27 26 1
L4 27 0 0.45u
R17 0 27 40
R28 49 45 1
I4 49 45 1.02
R29 49 46 1
I5 46 49 0.84
G13 0 42 41 0 1
R27 42 0 1
C7 42 0 750p
R5 7 1 50
R6 8 2 50
V2 3 10 2.3
V1 9 4 1.26
R36 40 57 0.63
D10 0 37 DSRP
D12 38 0 DSRN
D21 7 8 DY
D22 8 7 DY

.model DX D(IS=1E-15)
.model DY D(IS=1E-15 BV=50)
.model DN D(KF=70e-13 T_ABS=27)
.model DNC D(KF=60e-4 T_ABS=27)
.model DB D(BV=46 T_ABS=27)
.model DSRP D(BV=64.5K T_ABS=27)
.model DSRN D(BV=64.5K T_ABS=27)

.ENDS NE5532TI_SN

* NE5532 Op Amp Model
* Version: 005 
* Date: 5/5/2023
* Author: Nazar Shtybel
* E-mail: nazar@s-audio.systems
*
* NJM5532_SN - JRC
* NE5532TI_SN - Texas Instruments
* 
* The following parameters are modeled:
* 1. Open loop gain and phase with RL and CL effects
* 2. AC/DC Common mode rejection ratio
* 3. AC/DC Power supply rejection ratio
* 4. Slew rate
* 5. Input voltage noise with 1/f
* 6. Input curent noise with 1/f
* 7. Input bias current with common mode and temperature effects
* 8. Input offset current with temperature effects
* 9. Input offset voltage with temperature effects
* 10. Input impedance
* 11. Output current through the supply rails
* 12. Output current limit 
* 13. Output voltage swing from rails with RL effects
* 14. Output impedance
* 15. Quiescent current vs Supply voltage with temperature effects
* 16. Maximum supply voltage breakdown
* 17. Overload recovery / No phase reversal
* 18. Input common mode voltage range
*
* Connections:
*                  Non-Inverting Input
*                  | Inverting Input
*                  | | +Supply Voltage
*                  | | | -Supply Voltage
*                  | | | | Output
*                  | | | | | 
.SUBCKT NJM5532_SN 1 2 3 4 5

D1 8 10 DX
D3 7 10 DX
D2 9 8 DX
D4 9 7 DX
E4 7 19 15 0 1
R9 16 15 1
R7 11 12 1
R8 13 11 1
G3 0 15 11 14 0.000001
L1 16 0 320u
E1 12 0 1 0 1
E2 13 0 2 0 1
E5 19 22 21 0 1
R13 0 21 1.4k
E3 14 4 3 4 0.5
R10 0 16 1000k
C2 0 2 4p
C1 1 0 4p
C3 1 2 4p
E6 22 25 26 0 1
G2 2 0 6 0 1
R4 6 0 1E-6 TC=-3.1e-3
I1 0 6 0.21
G1 1 0 6 0 0.98
R2 1 2 150k
R1 0 1 900Meg
R3 2 0 900Meg
R24 39 0 1
C4 39 0 554E-5
G10 0 39 36 0 1
G9 0 36 30 8 1000000
R23 36 0 1
D9 36 37 DX
D11 38 36 DX
G16 49 3 3 42 0.025
G17 4 49 42 4 0.025
R32 3 49 40
R33 49 4 40
R34 56 49 1
G15 48 4 42 49 0.01
G14 47 4 49 42 0.01
D17 3 48 DX
D15 3 47 DX
D16 4 47 DY
D18 4 48 DY
D19 49 54 DX
E13 54 3 51 49 1000
V7 50 51 0.72
D20 55 49 DX
E14 55 4 53 49 1000
V8 53 52 1.32
E11 3 50 49 56 20
G11 0 40 39 0 1
R25 40 0 1
C5 57 0 1.75E-7
V3 20 0 0.235
D5 20 21 DN
R30 47 0 1G
R31 48 0 1G
R20 0 34 0.00002
V5 33 0 0.235
D7 33 34 DNC
G7 0 2 34 0 1
R19 0 32 0.00002
V4 31 0 0.235
D6 31 32 DNC
G6 0 1 32 0 1
G12 0 41 40 0 1
R26 41 0 1
C6 41 0 1000p
C8 49 42 1p
D13 42 43 DX
E9 43 0 45 42 1000
D14 44 42 DX
E10 44 0 46 42 1000
R21 3 4 36k
D8 4 3 DB
G8 3 4 35 0 1
R22 0 35 1 TC=1.5e-3
I3 0 35 0.0034
E8 25 30 29 0 1
R18 0 29 1
I2 29 0 0.0006
L5 56 5 300n
R35 56 5 30
E12 4 52 49 56 20
G4 0 23 3 4 0.000003
R14 24 23 1
L3 24 0 3600u
R15 0 24 10k
G5 0 26 23 0 1
R16 27 26 1
L4 27 0 0.5u
R17 0 27 50
R28 49 45 1
I4 49 45 0.84
R29 49 46 1
I5 46 49 0.44
G13 0 42 41 0 1
R27 42 0 1
C7 42 0 1000p
R5 7 1 50
R6 8 2 50
V2 3 10 2.37
V1 9 4 1.26
R36 40 57 0.52
D10 0 37 DSRP
D12 38 0 DSRN
D21 7 8 DY
D22 8 7 DY

.model DX D(IS=1E-15)
.model DY D(IS=1E-15 BV=50)
.model DN D(KF=70e-13 T_ABS=27)
.model DNC D(KF=60e-4 T_ABS=27)
.model DB D(BV=46 T_ABS=27)
.model DSRP D(BV=44.2K T_ABS=27)
.model DSRN D(BV=44.2K T_ABS=27)

.ENDS NJM5532_SN


.SUBCKT NE5532TI_SN 1 2 3 4 5

D1 8 10 DX
D3 7 10 DX
D2 9 8 DX
D4 9 7 DX
E4 7 19 15 0 1
R9 16 15 1
R7 11 12 1
R8 13 11 1
G3 0 15 11 14 0.000001
L1 16 0 320u
E1 12 0 1 0 1
E2 13 0 2 0 1
E5 19 22 21 0 1
R13 0 21 1.4k
E3 14 4 3 4 0.5
R10 0 16 1000k
C2 0 2 3.5p
C1 1 0 3.5p
C3 1 2 3.5p
E6 22 25 26 0 1
G2 2 0 6 0 1
R4 6 0 1E-6 TC=-3.1e-3
I1 0 6 0.21
G1 1 0 6 0 0.98
R2 1 2 150k
R1 0 1 550Meg
R3 2 0 550Meg
R24 39 0 1
C4 39 0 807E-5
G10 0 39 36 0 1
G9 0 36 30 8 1000000
R23 36 0 1
D9 36 37 DX
D11 38 36 DX
G16 49 3 3 42 0.025
G17 4 49 42 4 0.025
R32 3 49 40
R33 49 4 40
R34 56 49 1
G15 48 4 42 49 0.01
G14 47 4 49 42 0.01
D17 3 48 DX
D15 3 47 DX
D16 4 47 DY
D18 4 48 DY
D19 49 54 DX
E13 54 3 51 49 1000
V7 50 51 0.74
D20 55 49 DX
E14 55 4 53 49 1000
V8 53 52 1.32
E11 3 50 49 56 18
G11 0 40 39 0 1
R25 40 0 1
C5 57 0 1.75E-7
V3 20 0 0.235
D5 20 21 DN
R30 47 0 1G
R31 48 0 1G
R20 0 34 0.00002
V5 33 0 0.235
D7 33 34 DNC
G7 0 2 34 0 1
R19 0 32 0.00002
V4 31 0 0.235
D6 31 32 DNC
G6 0 1 32 0 1
G12 0 41 40 0 1
R26 41 0 1
C6 41 0 750p
C8 49 42 1p
D13 42 43 DX
E9 43 0 45 42 1000
D14 44 42 DX
E10 44 0 46 42 1000
R21 3 4 36k
D8 4 3 DB
G8 3 4 35 0 1
R22 0 35 1 TC=1.5e-3
I3 0 35 0.003
E8 25 30 29 0 1
R18 0 29 1
I2 29 0 0.0006
L5 56 5 300n
R35 56 5 50
E12 4 52 49 56 18
G4 0 23 3 4 0.000003
R14 24 23 1
L3 24 0 4800u
R15 0 24 10k
G5 0 26 23 0 1
R16 27 26 1
L4 27 0 0.45u
R17 0 27 40
R28 49 45 1
I4 49 45 1.02
R29 49 46 1
I5 46 49 0.84
G13 0 42 41 0 1
R27 42 0 1
C7 42 0 750p
R5 7 1 50
R6 8 2 50
V2 3 10 2.3
V1 9 4 1.26
R36 40 57 0.63
D10 0 37 DSRP
D12 38 0 DSRN
D21 7 8 DY
D22 8 7 DY

.model DX D(IS=1E-15)
.model DY D(IS=1E-15 BV=50)
.model DN D(KF=70e-13 T_ABS=27)
.model DNC D(KF=60e-4 T_ABS=27)
.model DB D(BV=46 T_ABS=27)
.model DSRP D(BV=64.5K T_ABS=27)
.model DSRN D(BV=64.5K T_ABS=27)

.ENDS NE5532TI_SN

* LM318 Op Amp Model
* Version: 005 
* Date: 5/4/2023
* Author: Shtybel Nazar
* E-mail: nazar@s-audio.systems
*
* LM318NS_SN - National Semiconductor
* LM318TI_SN - Texas Instruments
* LT318A_SN - Linear Technology
* 
* The following parameters are modeled:
* 1. Open loop gain and phase with RL and CL effects
* 2. AC/DC Common mode rejection ratio
* 3. AC/DC Power supply rejection ratio
* 4. Slew rate
* 5. Input voltage noise with 1/f
* 6. Input curent noise with 1/f
* 7. Input bias current with common mode and temperature effects
* 8. Input offset current with temperature effects
* 9. Input offset voltage with temperature effects
* 10. Input impedance
* 11. Output current through the supply rails
* 12. Output current limit with temperature effects 
* 13. Output voltage swing from rails with RL effects
* 14. Output impedance
* 15. Quiescent current vs Supply voltage with temperature effects
* 16. Maximum supply voltage breakdown
* 17. Overload recovery / No phase reversal
* 18. Input common mode voltage range
*
* Connections:
*                Non-Inverting Input
*                | Inverting Input
*                | | +Supply Voltage
*                | | | -Supply Voltage
*                | | | | Output
*                | | | | | 
.SUBCKT LM318NS_SN 1 2 3 4 5

D1 8 10 DX
D3 7 10 DX
D2 9 8 DX
D4 9 7 DX
E4 7 19 17 0 1
R9 16 15 1
R7 11 12 1
R8 13 11 1
G3 0 15 11 14 0.00001
L1 16 0 17.5u
E1 12 0 1 0 1
E2 13 0 2 0 1
E5 19 22 21 0 1
R13 0 21 8.5k
E3 14 4 3 4 0.5
R10 0 16 0.55k
C2 0 2 3p
C1 1 0 3p
C3 1 2 1.1p
E6 22 25 26 0 1
G2 2 0 6 0 0.9
R4 6 0 1E-6 TC=-2e-3
I1 0 6 0.15
G1 1 0 6 0 1
R2 1 2 3Meg
R1 0 1 1000Meg
R3 2 0 1000Meg
R24 39 0 1
C4 39 0 95E-5
G10 0 39 36 0 1
G9 0 36 30 8 200000
R23 36 0 1
D9 36 37 DX
D11 38 36 DX
G16 49 3 3 42 0.01
G17 4 49 42 4 0.01
R32 3 49 100
R33 49 4 100
R34 56 49 1
G15 48 4 42 49 0.01
G14 47 4 49 42 0.01
D17 3 48 DX
D15 3 47 DX
D16 4 47 DY
D18 4 48 DY
D19 49 54 DX
E13 54 3 51 49 1000
V7 50 51 0.66
D20 55 49 DX
E14 55 4 53 49 1000
V8 53 52 1.36
E11 3 50 49 56 65
G11 0 40 39 0 1
R25 40 0 1
C5 57 0 2.6525E-7
V3 20 0 0.235
D5 20 21 DN
R30 47 0 1G
R31 48 0 1G
R20 0 34 0.0000025
V5 33 0 0.235
D7 33 34 DNC
G7 0 2 34 0 1
R19 0 32 0.0000025
V4 31 0 0.235
D6 31 32 DNC
G6 0 1 32 0 1
G12 0 41 40 0 1
R26 41 0 1
C6 41 0 2200p
C8 49 42 1p
D13 42 43 DX
E9 43 0 45 42 1000
D14 44 42 DX
E10 44 0 46 42 1000
R21 3 4 77k
D8 4 3 DB
G8 3 4 35 0 1
R22 0 35 1 TC=-1e-3
I3 0 35 0.0048
E8 25 30 29 0 1
R18 0 29 1 TC=-2e-3
I2 29 0 0.0061
L5 56 5 150n
E12 4 52 49 56 65
G4 0 23 3 4 0.00002
R14 24 23 1