*
* Generic pentode model: 12BY7A
* Copyright 2003--2008 by Ayumi Nakabayashi, All rights reserved.
* Version 3.10, Generated on Sat Mar  8 22:41:15 2008
*              Plate
*              | Screen Grid
*              | | Control Grid
*              | | | Cathode
*              | | | |
.SUBCKT 12BY7A A G2 G1 K
BGG   GG   0 V=V(G1,K)+-0.02185341
BM1   M1   0 V=(0.014593712*(URAMP(V(G2,K))+1e-10))**-0.7027291
BM2   M2   0 V=(0.68097344*(URAMP(V(GG)+URAMP(V(G2,K))/21.860549)))**2.2027291
BP    P    0 V=0.0061475247*(URAMP(V(GG)+URAMP(V(G2,K))/32.101912))**1.5
BIK   IK   0 V=U(V(GG))*V(P)+(1-U(V(GG)))*0.0036081888*V(M1)*V(M2)
BIG   IG   0 V=0.0030737623*URAMP(V(G1,K))**1.5*(URAMP(V(G1,K))/(URAMP(V(A,K))+URAMP(V(G1,K)))*1.2+0.4)
BIK2  IK2  0 V=V(IK,IG)*(1-0.4*(EXP(-URAMP(V(A,K))/URAMP(V(G2,K))*15)-EXP(-15)))
BIG2T IG2T 0 V=V(IK2)*(0.82512147*(1-URAMP(V(A,K))/(URAMP(V(A,K))+10))**1.5+0.17487853)
BIK3  IK3  0 V=V(IK2)*(URAMP(V(A,K))+4890)/(URAMP(V(G2,K))+4890)
BIK4  IK4  0 V=V(IK3)-URAMP(V(IK3)-(0.0033632383*(URAMP(V(A,K))+URAMP(URAMP(V(G2,K))-URAMP(V(A,K))))**1.5))
BIP   IP   0 V=URAMP(V(IK4,IG2T)-URAMP(V(IK4,IG2T)-(0.0033632383*URAMP(V(A,K))**1.5)))
BIAK  A    K I=V(IP)+1e-10*V(A,K)
BIG2  G2   K I=URAMP(V(IK4,IP))
BIGK  G1   K I=V(IG)
* CAPS
CGA   G1  A  0.063p
CGK   G1  K  6.1p
C12   G1  G2 4.1p
CAK   A   K  3.4p
.ENDS
*
* Generic pentode model: 12GN7A
* Copyright 2003--2008 by Ayumi Nakabayashi, All rights reserved.
* Version 3.10, Generated on Sat Mar  8 22:41:16 2008
*              Plate
*              | Screen Grid
*              | | Control Grid
*              | | | Cathode
*              | | | |
.SUBCKT 12GN7A A G2 G1 K
BGG   GG   0 V=V(G1,K)+-0.52499611
BM1   M1   0 V=(0.0070794303*(URAMP(V(G2,K))+1e-10))**-0.51284817
BM2   M2   0 V=(0.74521269*(URAMP(V(GG)+URAMP(V(G2,K))/35.989804)))**2.0128482
BP    P    0 V=0.032317671*(URAMP(V(GG)+URAMP(V(G2,K))/48.294674))**1.5
BIK   IK   0 V=U(V(GG))*V(P)+(1-U(V(GG)))*0.018638041*V(M1)*V(M2)
BIG   IG   0 V=0.016158835*URAMP(V(G1,K))**1.5*(URAMP(V(G1,K))/(URAMP(V(A,K))+URAMP(V(G1,K)))*1.2+0.4)
BIK2  IK2  0 V=V(IK,IG)*(1-0.4*(EXP(-URAMP(V(A,K))/URAMP(V(G2,K))*15)-EXP(-15)))
BIG2T IG2T 0 V=V(IK2)*(0.81776253*(1-URAMP(V(A,K))/(URAMP(V(A,K))+10))**1.5+0.18223747)
BIK3  IK3  0 V=V(IK2)*(URAMP(V(A,K))+1950)/(URAMP(V(G2,K))+1950)
BIK4  IK4  0 V=V(IK3)-URAMP(V(IK3)-(0.017167779*(URAMP(V(A,K))+URAMP(URAMP(V(G2,K))-URAMP(V(A,K))))**1.5))
BIP   IP   0 V=URAMP(V(IK4,IG2T)-URAMP(V(IK4,IG2T)-(0.017167779*URAMP(V(A,K))**1.5)))
BIAK  A    K I=V(IP)+1e-10*V(A,K)
BIG2  G2   K I=URAMP(V(IK4,IP))
BIGK  G1   K I=V(IG)
* CAPS
CGA   G1  A  0.12p
CGK   G1  K  10.4p
C12   G1  G2 7p
CAK   A   K  3.9p
.ENDS
*
* Generic pentode model: 1619
* Copyright 2003--2008 by Ayumi Nakabayashi, All rights reserved.
* Version 3.10, Generated on Sat Mar  8 22:42:00 2008
*            Plate
*            | Screen Grid
*            | | Control Grid
*            | | | Cathode
*            | | | |
.SUBCKT 1619 A G2 G1 K
BGG   GG   0 V=V(G1,K)+-0.99999999
BM1   M1   0 V=(0.021726327*(URAMP(V(G2,K))+1e-10))**-0.34437983
BM2   M2   0 V=(0.8132815*(URAMP(V(GG)+URAMP(V(G2,K))/8.5941123)))**1.8443798
BP    P    0 V=0.00095297512*(URAMP(V(GG)+URAMP(V(G2,K))/10.567205))**1.5
BIK   IK   0 V=U(V(GG))*V(P)+(1-U(V(GG)))*0.00057412229*V(M1)*V(M2)
BIG   IG   0 V=0.00047648756*URAMP(V(G1,K))**1.5*(URAMP(V(G1,K))/(URAMP(V(A,K))+URAMP(V(G1,K)))*1.2+0.4)
BIK2  IK2  0 V=V(IK,IG)*(1-0.4*(EXP(-URAMP(V(A,K))/URAMP(V(G2,K))*15)-EXP(-15)))
BIG2T IG2T 0 V=V(IK2)*(0.922008525*(1-URAMP(V(A,K))/(URAMP(V(A,K))+10))**1.5+0.077991475)
BIK3  IK3  0 V=V(IK2)*(URAMP(V(A,K))+4700)/(URAMP(V(G2,K))+4700)
BIK4  IK4  0 V=V(IK3)-URAMP(V(IK3)-(0.0006149126*(URAMP(V(A,K))+URAMP(URAMP(V(G2,K))-URAMP(V(A,K))))**1.5))
BIP   IP   0 V=URAMP(V(IK4,IG2T)-URAMP(V(IK4,IG2T)-(0.0006149126*URAMP(V(A,K))**1.5)))
BIAK  A    K I=V(IP)+1e-10*V(A,K)
BIG2  G2   K I=URAMP(V(IK4,IP))
BIGK  G1   K I=V(IG)
* CAPS
CGA   G1  A  0.35p
CGK   G1  K  6.1p
C12   G1  G2 4.1p
CAK   A   K  12.2p
.ENDS
*
* Generic pentode model: 20P1
* Copyright 2003--2008 by Ayumi Nakabayashi, All rights reserved.
* Version 3.10, Generated on Sat Mar  8 22:41:18 2008
*            Plate
*            | Screen Grid
*            | | Control Grid
*            | | | Cathode
*            | | | |
.SUBCKT 20P1 A G2 G1 K
BGG   GG   0 V=V(G1,K)+0.99999997
BM1   M1   0 V=(0.15450603*(URAMP(V(G2,K))+1e-10))**-1.2979847
BM2   M2   0 V=(0.53610015*(URAMP(V(GG)+URAMP(V(G2,K))/3.0024709)))**2.7979847
BP    P    0 V=0.002051274*(URAMP(V(GG)+URAMP(V(G2,K))/5.6005784))**1.5
BIK   IK   0 V=U(V(GG))*V(P)+(1-U(V(GG)))*0.0017001298*V(M1)*V(M2)
BIG   IG   0 V=0.001025637*URAMP(V(G1,K))**1.5*(URAMP(V(G1,K))/(URAMP(V(A,K))+URAMP(V(G1,K)))*1.2+0.4)
BIK2  IK2  0 V=V(IK,IG)*(1-0.4*(EXP(-URAMP(V(A,K))/URAMP(V(G2,K))*15)-EXP(-15)))
BIG2T IG2T 0 V=V(IK2)*(0.956631473*(1-URAMP(V(A,K))/(URAMP(V(A,K))+10))**1.5+0.043368527)
BIK3  IK3  0 V=V(IK2)*(URAMP(V(A,K))+1622.5)/(URAMP(V(G2,K))+1622.5)
BIK4  IK4  0 V=V(IK3)-URAMP(V(IK3)-(0.0015988677*(URAMP(V(A,K))+URAMP(URAMP(V(G2,K))-URAMP(V(A,K))))**1.5))
BIP   IP   0 V=URAMP(V(IK4,IG2T)-URAMP(V(IK4,IG2T)-(0.0015988677*URAMP(V(A,K))**1.5)))
BIAK  A    K I=V(IP)+1e-10*V(A,K)
BIG2  G2   K I=URAMP(V(IK4,IP))
BIGK  G1   K I=V(IG)
* CAPS
CGA   G1  A  0.5p
CGK   G1  K  13.5p
C12   G1  G2 9p
CAK   A   K  10.5p
.ENDS
*
* Generic pentode model: 24
* Copyright 2003--2008 by Ayumi Nakabayashi, All rights reserved.
* Version 3.10, Generated on Sat Mar  8 22:46:31 2008
*          Plate
*          | Screen Grid
*          | | Control Grid
*          | | | Cathode
*          | | | |
.SUBCKT 24 A G2 G1 K
BGG   GG   0 V=V(G1,K)+0.67663821
BM1   M1   0 V=(0.056557649*(URAMP(V(G2,K))+1e-10))**-1.0488029
BM2   M2   0 V=(0.58851157*(URAMP(V(GG)+URAMP(V(G2,K))/7.2755574)))**2.5488029
BP    P    0 V=0.00036970393*(URAMP(V(GG)+URAMP(V(G2,K))/12.362641))**1.5
BIK   IK   0 V=U(V(GG))*V(P)+(1-U(V(GG)))*0.00025402288*V(M1)*V(M2)
BIG   IG   0 V=0.00018485196*URAMP(V(G1,K))**1.5*(URAMP(V(G1,K))/(URAMP(V(A,K))+URAMP(V(G1,K)))*1.2+0.4)
BIK2  IK2  0 V=V(IK,IG)*(1-0.4*(EXP(-URAMP(V(A,K))/URAMP(V(G2,K))*15)-EXP(-15)))
BIG2T IG2T 0 V=V(IK2)*(0.89560668*(1-URAMP(V(A,K))/(URAMP(V(A,K))+10))**1.5+0.10439332)
BIK3  IK3  0 V=V(IK2)*(URAMP(V(A,K))+2237.1045)/(URAMP(V(G2,K))+2237.1045)
BIK4  IK4  0 V=V(IK3)-URAMP(V(IK3)-(0.0002306046*(URAMP(V(A,K))+URAMP(URAMP(V(G2,K))-URAMP(V(A,K))))**1.5))
BIP   IP   0 V=URAMP(V(IK4,IG2T)-URAMP(V(IK4,IG2T)-(0.0002306046*URAMP(V(A,K))**1.5)))
BIAK  A    K I=V(IP)+1e-10*V(A,K)
BIG2  G2   K I=URAMP(V(IK4,IP))
BIGK  G1   K I=V(IG)
* CAPS
CGA   G1  A  0.007p
CGK   G1  K  3.2p
C12   G1  G2 2.1p
CAK   A   K  10.5p
.ENDS
*
* Generic pentode model: 25E5
* Copyright 2003--2008 by Ayumi Nakabayashi, All rights reserved.
* Version 3.10, Generated on Sat Mar  8 22:41:19 2008
*            Plate
*            | Screen Grid
*            | | Control Grid
*            | | | Cathode
*            | | | |
.SUBCKT 25E5 A G2 G1 K
BGG   GG   0 V=V(G1,K)+1
BM1   M1   0 V=(0.081561717*(URAMP(V(G2,K))+1e-10))**-0.79980677
BM2   M2   0 V=(0.65222871*(URAMP(V(GG)+URAMP(V(G2,K))/4.2639035)))**2.2998068
BP    P    0 V=0.0042185857*(URAMP(V(GG)+URAMP(V(G2,K))/6.5374361))**1.5
BIK   IK   0 V=U(V(GG))*V(P)+(1-U(V(GG)))*0.0025511424*V(M1)*V(M2)
BIG   IG   0 V=0.0021092928*URAMP(V(G1,K))**1.5*(URAMP(V(G1,K))/(URAMP(V(A,K))+URAMP(V(G1,K)))*1.2+0.4)
BIK2  IK2  0 V=V(IK,IG)*(1-0.4*(EXP(-URAMP(V(A,K))/URAMP(V(G2,K))*15)-EXP(-15)))
BIG2T IG2T 0 V=V(IK2)*(0.960918328*(1-URAMP(V(A,K))/(URAMP(V(A,K))+10))**1.5+0.039081672)
BIK3  IK3  0 V=V(IK2)*(URAMP(V(A,K))+1400)/(URAMP(V(G2,K))+1400)
BIK4  IK4  0 V=V(IK3)-URAMP(V(IK3)-(0.00311336*(URAMP(V(A,K))+URAMP(URAMP(V(G2,K))-URAMP(V(A,K))))**1.5))
BIP   IP   0 V=URAMP(V(IK4,IG2T)-URAMP(V(IK4,IG2T)-(0.00311336*URAMP(V(A,K))**1.5)))
BIAK  A    K I=V(IP)+1e-10*V(A,K)
BIG2  G2   K I=URAMP(V(IK4,IP))
BIGK  G1   K I=V(IG)
* CAPS
CGA   G1  A  1.1p
CGK   G1  K  9.9p
C12   G1  G2 6.6p
CAK   A   K  7p
.ENDS
*
* Generic pentode model: 31LZ6
* Copyright 2003--2008 by Ayumi Nakabayashi, All rights reserved.
* Version 3.10, Generated on Sat Mar  8 22:41:20 2008
*             Plate
*             | Screen Grid
*             | | Control Grid
*             | | | Cathode
*             | | | |
.SUBCKT 31LZ6 A G2 G1 K
BGG   GG   0 V=V(G1,K)+-0.11976616
BM1   M1   0 V=(0.21025804*(URAMP(V(G2,K))+1e-10))**-1.445676
BM2   M2   0 V=(0.50922098*(URAMP(V(GG)+URAMP(V(G2,K))/2.3341748)))**2.945676
BP    P    0 V=0.0061264796*(URAMP(V(GG)+URAMP(V(G2,K))/4.5838151))**1.5
BIK   IK   0 V=U(V(GG))*V(P)+(1-U(V(GG)))*0.0058083241*V(M1)*V(M2)
BIG   IG   0 V=0.0030632398*URAMP(V(G1,K))**1.5*(URAMP(V(G1,K))/(URAMP(V(A,K))+URAMP(V(G1,K)))*1.2+0.4)
BIK2  IK2  0 V=V(IK,IG)*(1-0.4*(EXP(-URAMP(V(A,K))/URAMP(V(G2,K))*15)-EXP(-15)))
BIG2T IG2T 0 V=V(IK2)*(0.9984634955*(1-URAMP(V(A,K))/(URAMP(V(A,K))+10))**1.5+0.0015365045)
BIK3  IK3  0 V=V(IK2)*(URAMP(V(A,K))+1345)/(URAMP(V(G2,K))+1345)
BIK4  IK4  0 V=V(IK3)-URAMP(V(IK3)-(0.0051737191*(URAMP(V(A,K))+URAMP(URAMP(V(G2,K))-URAMP(V(A,K))))**1.5))
BIP   IP   0 V=URAMP(V(IK4,IG2T)-URAMP(V(IK4,IG2T)-(0.0051737191*URAMP(V(A,K))**1.5)))
BIAK  A    K I=V(IP)+1e-10*V(A,K)
BIG2  G2   K I=URAMP(V(IK4,IP))
BIGK  G1   K I=V(IG)
* CAPS
CGA   G1  A  0.6p
CGK   G1  K  12.9p
C12   G1  G2 8.6p
CAK   A   K  10.4p
.ENDS
*
* Generic pentode model: 350B
* Copyright 2003--2008 by Ayumi Nakabayashi, All rights reserved.
* Version 3.10, Generated on Sat Mar  8 22:41:53 2008
*            Plate
*            | Screen Grid
*            | | Control Grid
*            | | | Cathode
*            | | | |
.SUBCKT 350B A G2 G1 K
BGG   GG   0 V=V(G1,K)+0.99999998
BM1   M1   0 V=(0.060793226*(URAMP(V(G2,K))+1e-10))**-0.90421858
BM2   M2   0 V=(0.62390334*(URAMP(V(GG)+URAMP(V(G2,K))/6.1864896)))**2.4042186
BP    P    0 V=0.0019265247*(URAMP(V(GG)+URAMP(V(G2,K))/9.9157821))**1.5
BIK   IK   0 V=U(V(GG))*V(P)+(1-U(V(GG)))*0.0012190211*V(M1)*V(M2)
BIG   IG   0 V=0.00096326237*URAMP(V(G1,K))**1.5*(URAMP(V(G1,K))/(URAMP(V(A,K))+URAMP(V(G1,K)))*1.2+0.4)
BIK2  IK2  0 V=V(IK,IG)*(1-0.4*(EXP(-URAMP(V(A,K))/URAMP(V(G2,K))*15)-EXP(-15)))
BIG2T IG2T 0 V=V(IK2)*(0.946533574*(1-URAMP(V(A,K))/(URAMP(V(A,K))+10))**1.5+0.053466426)
BIK3  IK3  0 V=V(IK2)*(URAMP(V(A,K))+4981.25)/(URAMP(V(G2,K))+4981.25)
BIK4  IK4  0 V=V(IK3)-URAMP(V(IK3)-(0.0012619241*(URAMP(V(A,K))+URAMP(URAMP(V(G2,K))-URAMP(V(A,K))))**1.5))
BIP   IP   0 V=URAMP(V(IK4,IG2T)-URAMP(V(IK4,IG2T)-(0.0012619241*URAMP(V(A,K))**1.5)))
BIAK  A    K I=V(IP)+1e-10*V(A,K)
BIG2  G2   K I=URAMP(V(IK4,IP))
BIGK  G1   K I=V(IG)
* CAPS
CGA   G1  A  0.5p
CGK   G1  K  9.3p
C12   G1  G2 6.2p
CAK   A   K  7.5p
.ENDS
*
* Generic pentode model: 35C5
* Copyright 2003--2008 by Ayumi Nakabayashi, All rights reserved.
* Version 3.10, Generated on Sat Mar  8 22:41:22 2008
*            Plate
*            | Screen Grid
*            | | Control Grid
*            | | | Cathode
*            | | | |
.SUBCKT 35C5 A G2 G1 K
BGG   GG   0 V=V(G1,K)+0.99999998
BM1   M1   0 V=(0.12544688*(URAMP(V(G2,K))+1e-10))**-1.6161868
BM2   M2   0 V=(0.48135753*(URAMP(V(GG)+URAMP(V(G2,K))/4.1343593)))**3.1161868
BP    P    0 V=0.0021455369*(URAMP(V(GG)+URAMP(V(G2,K))/8.5889574))**1.5
BIK   IK   0 V=U(V(GG))*V(P)+(1-U(V(GG)))*0.0024204769*V(M1)*V(M2)
BIG   IG   0 V=0.0010727685*URAMP(V(G1,K))**1.5*(URAMP(V(G1,K))/(URAMP(V(A,K))+URAMP(V(G1,K)))*1.2+0.4)
BIK2  IK2  0 V=V(IK,IG)*(1-0.4*(EXP(-URAMP(V(A,K))/URAMP(V(G2,K))*15)-EXP(-15)))
BIG2T IG2T 0 V=V(IK2)*(0.953162074*(1-URAMP(V(A,K))/(URAMP(V(A,K))+10))**1.5+0.046837926)
BIK3  IK3  0 V=V(IK2)*(URAMP(V(A,K))+1030)/(URAMP(V(G2,K))+1030)
BIK4  IK4  0 V=V(IK3)-URAMP(V(IK3)-(0.0014581748*(URAMP(V(A,K))+URAMP(URAMP(V(G2,K))-URAMP(V(A,K))))**1.5))
BIP   IP   0 V=URAMP(V(IK4,IG2T)-URAMP(V(IK4,IG2T)-(0.0014581748*URAMP(V(A,K))**1.5)))
BIAK  A    K I=V(IP)+1e-10*V(A,K)
BIG2  G2   K I=URAMP(V(IK4,IP))
BIGK  G1   K I=V(IG)
* CAPS
CGA   G1  A  0.6p
CGK   G1  K  6.9p
C12   G1  G2 4.6p
CAK   A   K  8.4p
.ENDS
*
* Generic pentode model: 50HB26
* Copyright 2003--2008 by Ayumi Nakabayashi, All rights reserved.
* Version 3.10, Generated on Sat Mar  8 22:41:23 2008
*              Plate
*              | Screen Grid
*              | | Control Grid
*              | | | Cathode
*              | | | |
.SUBCKT 50HB26 A G2 G1 K
BGG   GG   0 V=V(G1,K)+0.99999978
BM1   M1   0 V=(0.092479665*(URAMP(V(G2,K))+1e-10))**-0.92218999
BM2   M2   0 V=(0.6192743*(URAMP(V(GG)+URAMP(V(G2,K))/4.1168586)))**2.42219
BP    P    0 V=0.0043389918*(URAMP(V(GG)+URAMP(V(G2,K))/6.6478758))**1.5
BIK   IK   0 V=U(V(GG))*V(P)+(1-U(V(GG)))*0.0027704924*V(M1)*V(M2)
BIG   IG   0 V=0.0021694959*URAMP(V(G1,K))**1.5*(URAMP(V(G1,K))/(URAMP(V(A,K))+URAMP(V(G1,K)))*1.2+0.4)
BIK2  IK2  0 V=V(IK,IG)*(1-0.4*(EXP(-URAMP(V(A,K))/URAMP(V(G2,K))*15)-EXP(-15)))
BIG2T IG2T 0 V=V(IK2)*(0.953564854*(1-URAMP(V(A,K))/(URAMP(V(A,K))+10))**1.5+0.046435146)
BIK3  IK3  0 V=V(IK2)*(URAMP(V(A,K))+1715)/(URAMP(V(G2,K))+1715)
BIK4  IK4  0 V=V(IK3)-URAMP(V(IK3)-(0.0031844715*(URAMP(V(A,K))+URAMP(URAMP(V(G2,K))-URAMP(V(A,K))))**1.5))
BIP   IP   0 V=URAMP(V(IK4,IG2T)-URAMP(V(IK4,IG2T)-(0.0031844715*URAMP(V(A,K))**1.5)))
BIAK  A    K I=V(IP)+1e-10*V(A,K)
BIG2  G2   K I=URAMP(V(IK4,IP))
BIGK  G1   K I=V(IG)
* CAPS
CGA   G1  A  1.1p
CGK   G1  K  9.8p
C12   G1  G2 6.5p
CAK   A   K  6.7p
.ENDS
*
* Generic pentode model: 6146B
* Copyright 2003--2008 by Ayumi Nakabayashi, All rights reserved.
* Version 3.10, Generated on Sat Mar  8 22:42:12 2008
*             Plate
*             | Screen Grid
*             | | Control Grid
*             | | | Cathode
*             | | | |
.SUBCKT 6146B A G2 G1 K
BGG   GG   0 V=V(G1,K)+0.99999998
BM1   M1   0 V=(0.058258554*(URAMP(V(G2,K))+1e-10))**-0.41427032
BM2   M2   0 V=(0.78358839*(URAMP(V(GG)+URAMP(V(G2,K))/3.7146753)))**1.9142703
BP    P    0 V=0.001563206*(URAMP(V(GG)+URAMP(V(G2,K))/4.7405951))**1.5
BIK   IK   0 V=U(V(GG))*V(P)+(1-U(V(GG)))*0.0009173158*V(M1)*V(M2)
BIG   IG   0 V=0.000781603*URAMP(V(G1,K))**1.5*(URAMP(V(G1,K))/(URAMP(V(A,K))+URAMP(V(G1,K)))*1.2+0.4)
BIK2  IK2  0 V=V(IK,IG)*(1-0.4*(EXP(-URAMP(V(A,K))/URAMP(V(G2,K))*15)-EXP(-15)))
BIG2T IG2T 0 V=V(IK2)*(0.956750418*(1-URAMP(V(A,K))/(URAMP(V(A,K))+10))**1.5+0.043249582)
BIK3  IK3  0 V=V(IK2)*(URAMP(V(A,K))+3004)/(URAMP(V(G2,K))+3004)
BIK4  IK4  0 V=V(IK3)-URAMP(V(IK3)-(0.0013014595*(URAMP(V(A,K))+URAMP(URAMP(V(G2,K))-URAMP(V(A,K))))**1.5))
BIP   IP   0 V=URAMP(V(IK4,IG2T)-URAMP(V(IK4,IG2T)-(0.0013014595*URAMP(V(A,K))**1.5)))
BIAK  A    K I=V(IP)+1e-10*V(A,K)
BIG2  G2   K I=URAMP(V(IK4,IP))
BIGK  G1   K I=V(IG)
* CAPS
CGA   G1  A  0.22p
CGK   G1  K  7.7p
C12   G1  G2 5.1p
CAK   A   K  8.3p
.ENDS
*
* Generic pentode model: 6197
* Copyright 2003--2008 by Ayumi Nakabayashi, All rights reserved.
* Version 3.10, Generated on Sat Mar  8 22:42:13 2008
*            Plate
*            | Screen Grid
*            | | Control Grid
*            | | | Cathode
*            | | | |
.SUBCKT 6197 A G2 G1 K
BGG   GG   0 V=V(G1,K)+0.45955375
BM1   M1   0 V=(0.014421851*(URAMP(V(G2,K))+1e-10))**-0.5339196
BM2   M2   0 V=(0.73749228*(URAMP(V(GG)+URAMP(V(G2,K))/18.202083)))**2.0339196
BP    P    0 V=0.0053217435*(URAMP(V(GG)+URAMP(V(G2,K))/24.681049))**1.5
BIK   IK   0 V=U(V(GG))*V(P)+(1-U(V(GG)))*0.0030656981*V(M1)*V(M2)
BIG   IG   0 V=0.0026608717*URAMP(V(G1,K))**1.5*(URAMP(V(G1,K))/(URAMP(V(A,K))+URAMP(V(G1,K)))*1.2+0.4)
BIK2  IK2  0 V=V(IK,IG)*(1-0.4*(EXP(-URAMP(V(A,K))/URAMP(V(G2,K))*15)-EXP(-15)))
BIG2T IG2T 0 V=V(IK2)*(0.81697318*(1-URAMP(V(A,K))/(URAMP(V(A,K))+10))**1.5+0.18302682)
BIK3  IK3  0 V=V(IK2)*(URAMP(V(A,K))+3900)/(URAMP(V(G2,K))+3900)
BIK4  IK4  0 V=V(IK3)-URAMP(V(IK3)-(0.002987557*(URAMP(V(A,K))+URAMP(URAMP(V(G2,K))-URAMP(V(A,K))))**1.5))
BIP   IP   0 V=URAMP(V(IK4,IG2T)-URAMP(V(IK4,IG2T)-(0.002987557*URAMP(V(A,K))**1.5)))
BIAK  A    K I=V(IP)+1e-10*V(A,K)
BIG2  G2   K I=URAMP(V(IK4,IP))
BIGK  G1   K I=V(IG)
* CAPS
CGA   G1  A  0.125p
CGK   G1  K  6.9p
C12   G1  G2 4.6p
CAK   A   K  5p
.ENDS
*
* Generic pentode model: 6267
* Copyright 2003--2008 by Ayumi Nakabayashi, All rights reserved.
* Version 3.10, Generated on Sat Mar  8 22:42:16 2008
*            Plate
*            | Screen Grid
*            | | Control Grid
*            | | | Cathode
*            | | | |
.SUBCKT 6267 A G2 G1 K
BGG   GG   0 V=V(G1,K)+0.59868749
BM1   M1   0 V=(0.010782364*(URAMP(V(G2,K))+1e-10))**-0.70765893
BM2   M2   0 V=(0.67945278*(URAMP(V(GG)+URAMP(V(G2,K))/29.728844)))**2.2076589
BP    P    0 V=0.0013378994*(URAMP(V(GG)+URAMP(V(G2,K))/43.754099))**1.5
BIK   IK   0 V=U(V(GG))*V(P)+(1-U(V(GG)))*0.00078620809*V(M1)*V(M2)
BIG   IG   0 V=0.00066894969*URAMP(V(G1,K))**1.5*(URAMP(V(G1,K))/(URAMP(V(A,K))+URAMP(V(G1,K)))*1.2+0.4)
BIK2  IK2  0 V=V(IK,IG)*(1-0.4*(EXP(-URAMP(V(A,K))/URAMP(V(G2,K))*15)-EXP(-15)))
BIG2T IG2T 0 V=V(IK2)*(0.83966688*(1-URAMP(V(A,K))/(URAMP(V(A,K))+10))**1.5+0.16033312)
BIK3  IK3  0 V=V(IK2)*(URAMP(V(A,K))+7510)/(URAMP(V(G2,K))+7510)
BIK4  IK4  0 V=V(IK3)-URAMP(V(IK3)-(0.00071507731*(URAMP(V(A,K))+URAMP(URAMP(V(G2,K))-URAMP(V(A,K))))**1.5))
BIP   IP   0 V=URAMP(V(IK4,IG2T)-URAMP(V(IK4,IG2T)-(0.00071507731*URAMP(V(A,K))**1.5)))
BIAK  A    K I=V(IP)+1e-10*V(A,K)
BIG2  G2   K I=URAMP(V(IK4,IP))
BIGK  G1   K I=V(IG)
* CAPS
CGA   G1  A  0.05p
CGK   G1  K  2.3p
C12   G1  G2 1.5p
CAK   A   K  5.3p
.ENDS
*
* Generic pentode model: 62BT
* Copyright 2003--2008 by Ayumi Nakabayashi, All rights reserved.
* Version 3.10, Generated on Sat Mar  8 22:41:25 2008
*            Plate
*            | Screen Grid
*            | | Control Grid
*            | | | Cathode
*            | | | |
.SUBCKT 62BT A G2 G1 K
BGG   GG   0 V=V(G1,K)+0.99999993
BM1   M1   0 V=(0.10647561*(URAMP(V(G2,K))+1e-10))**-1.0560332
BM2   M2   0 V=(0.58684685*(URAMP(V(GG)+URAMP(V(G2,K))/3.8802609)))**2.5560332
BP    P    0 V=0.002839063*(URAMP(V(GG)+URAMP(V(G2,K))/6.6120504))**1.5
BIK   IK   0 V=U(V(GG))*V(P)+(1-U(V(GG)))*0.0019598422*V(M1)*V(M2)
BIG   IG   0 V=0.0014195315*URAMP(V(G1,K))**1.5*(URAMP(V(G1,K))/(URAMP(V(A,K))+URAMP(V(G1,K)))*1.2+0.4)
BIK2  IK2  0 V=V(IK,IG)*(1-0.4*(EXP(-URAMP(V(A,K))/URAMP(V(G2,K))*15)-EXP(-15)))
BIG2T IG2T 0 V=V(IK2)*(0.964210772*(1-URAMP(V(A,K))/(URAMP(V(A,K))+10))**1.5+0.035789228)
BIK3  IK3  0 V=V(IK2)*(URAMP(V(A,K))+2070)/(URAMP(V(G2,K))+2070)
BIK4  IK4  0 V=V(IK3)-URAMP(V(IK3)-(0.0020873677*(URAMP(V(A,K))+URAMP(URAMP(V(G2,K))-URAMP(V(A,K))))**1.5))
BIP   IP   0 V=URAMP(V(IK4,IG2T)-URAMP(V(IK4,IG2T)-(0.0020873677*URAMP(V(A,K))**1.5)))
BIAK  A    K I=V(IP)+1e-10*V(A,K)
BIG2  G2   K I=URAMP(V(IK4,IP))
BIGK  G1   K I=V(IG)
* CAPS
CGA   G1  A  0.5p
CGK   G1  K  13.5p
C12   G1  G2 9p
CAK   A   K  10.5p
.ENDS
*
* Generic pentode model: 6550A
* Copyright 2003--2008 by Ayumi Nakabayashi, All rights reserved.
* Version 3.10, Generated on Sat Mar  8 22:42:21 2008
*             Plate
*             | Screen Grid
*             | | Control Grid
*             | | | Cathode
*             | | | |
.SUBCKT 6550A A G2 G1 K
BGG   GG   0 V=V(G1,K)+0.1919366
BM1   M1   0 V=(0.064698506*(URAMP(V(G2,K))+1e-10))**-0.90961742
BM2   M2   0 V=(0.62250546*(URAMP(V(GG)+URAMP(V(G2,K))/5.8346717)))**2.4096174
BP    P    0 V=0.0027588474*(URAMP(V(GG)+URAMP(V(G2,K))/9.3728844))**1.5
BIK   IK   0 V=U(V(GG))*V(P)+(1-U(V(GG)))*0.0017503674*V(M1)*V(M2)
BIG   IG   0 V=0.0013794237*URAMP(V(G1,K))**1.5*(URAMP(V(G1,K))/(URAMP(V(A,K))+URAMP(V(G1,K)))*1.2+0.4)
BIK2  IK2  0 V=V(IK,IG)*(1-0.4*(EXP(-URAMP(V(A,K))/URAMP(V(G2,K))*15)-EXP(-15)))
BIG2T IG2T 0 V=V(IK2)*(0.928052868*(1-URAMP(V(A,K))/(URAMP(V(A,K))+10))**1.5+0.071947132)
BIK3  IK3  0 V=V(IK2)*(URAMP(V(A,K))+2900)/(URAMP(V(G2,K))+2900)
BIK4  IK4  0 V=V(IK3)-URAMP(V(IK3)-(0.0018325138*(URAMP(V(A,K))+URAMP(URAMP(V(G2,K))-URAMP(V(A,K))))**1.5))
BIP   IP   0 V=URAMP(V(IK4,IG2T)-URAMP(V(IK4,IG2T)-(0.0018325138*URAMP(V(A,K))**1.5)))
BIAK  A    K I=V(IP)+1e-10*V(A,K)
BIG2  G2   K I=URAMP(V(IK4,IP))
BIGK  G1   K I=V(IG)
* CAPS
CGA   G1  A  0.8p
CGK   G1  K  8.6p
C12   G1  G2 5.7p
CAK   A   K  9.2p
.ENDS
*
* Generic pentode model: 6AK6
* Copyright 2003--2008 by Ayumi Nakabayashi, All rights reserved.
* Version 3.10, Generated on Sat Mar  8 22:39:03 2008
*            Plate
*            | Screen Grid
*            | | Control Grid
*            | | | Cathode
*            | | | |
.SUBCKT 6AK6 A G2 G1 K
BGG   GG   0 V=V(G1,K)+1
BM1   M1   0 V=(0.047037015*(URAMP(V(G2,K))+1e-10))**-0.80231696
BM2   M2   0 V=(0.65151759*(URAMP(V(GG)+URAMP(V(G2,K))/7.4086847)))**2.302317
BP    P    0 V=0.00071109747*(URAMP(V(GG)+URAMP(V(G2,K))/11.371427))**1.5
BIK   IK   0 V=U(V(GG))*V(P)+(1-U(V(GG)))*0.00043043074*V(M1)*V(M2)
BIG   IG   0 V=0.00035554873*URAMP(V(G1,K))**1.5*(URAMP(V(G1,K))/(URAMP(V(A,K))+URAMP(V(G1,K)))*1.2+0.4)
BIK2  IK2  0 V=V(IK,IG)*(1-0.4*(EXP(-URAMP(V(A,K))/URAMP(V(G2,K))*15)-EXP(-15)))
BIG2T IG2T 0 V=V(IK2)*(0.86761893*(1-URAMP(V(A,K))/(URAMP(V(A,K))+10))**1.5+0.13238107)
BIK3  IK3  0 V=V(IK2)*(URAMP(V(A,K))+4320)/(URAMP(V(G2,K))+4320)
BIK4  IK4  0 V=V(IK3)-URAMP(V(IK3)-(0.00045138222*(URAMP(V(A,K))+URAMP(URAMP(V(G2,K))-URAMP(V(A,K))))**1.5))
BIP   IP   0 V=URAMP(V(IK4,IG2T)-URAMP(V(IK4,IG2T)-(0.00045138222*URAMP(V(A,K))**1.5)))
BIAK  A    K I=V(IP)+1e-10*V(A,K)
BIG2  G2   K I=URAMP(V(IK4,IP))
BIGK  G1   K I=V(IG)
* CAPS
CGA   G1  A  0.12p
CGK   G1  K  2.1p
C12   G1  G2 1.4p
CAK   A   K  4.1p
.ENDS
*
* Generic pentode model: 6AN8P
* Copyright 2003--2008 by Ayumi Nakabayashi, All rights reserved.
* Version 3.10, Generated on Sat Mar  8 22:39:07 2008
*             Plate
*             | Screen Grid
*             | | Control Grid
*             | | | Cathode
*             | | | |
.SUBCKT 6AN8P A G2 G1 K
BGG   GG   0 V=V(G1,K)+-1
BM1   M1   0 V=(0.024591513*(URAMP(V(G2,K))+1e-10))**-1.3002423
BM2   M2   0 V=(0.53566794*(URAMP(V(GG)+URAMP(V(G2,K))/18.881801)))**2.8002423
BP    P    0 V=0.0063199577*(URAMP(V(GG)+URAMP(V(G2,K))/35.249078))**1.5
BIK   IK   0 V=U(V(GG))*V(P)+(1-U(V(GG)))*0.0052482203*V(M1)*V(M2)
BIG   IG   0 V=0.0031599788*URAMP(V(G1,K))**1.5*(URAMP(V(G1,K))/(URAMP(V(A,K))+URAMP(V(G1,K)))*1.2+0.4)
BIK2  IK2  0 V=V(IK,IG)*(1-0.4*(EXP(-URAMP(V(A,K))/URAMP(V(G2,K))*15)-EXP(-15)))
BIG2T IG2T 0 V=V(IK2)*(0.77512042*(1-URAMP(V(A,K))/(URAMP(V(A,K))+10))**1.5+0.22487958)
BIK3  IK3  0 V=V(IK2)*(URAMP(V(A,K))+7075)/(URAMP(V(G2,K))+7075)
BIK4  IK4  0 V=V(IK3)-URAMP(V(IK3)-(0.0034308188*(URAMP(V(A,K))+URAMP(URAMP(V(G2,K))-URAMP(V(A,K))))**1.5))
BIP   IP   0 V=URAMP(V(IK4,IG2T)-URAMP(V(IK4,IG2T)-(0.0034308188*URAMP(V(A,K))**1.5)))
BIAK  A    K I=V(IP)+1e-10*V(A,K)
BIG2  G2   K I=URAMP(V(IK4,IP))
BIGK  G1   K I=V(IG)
* CAPS
CGA   G1  A  0.04p
CGK   G1  K  4.2p
C12   G1  G2 2.8p
CAK   A   K  2.4p
.ENDS
*
* Generic pentode model: 6AU6
* Copyright 2003--2008 by Ayumi Nakabayashi, All rights reserved.
* Version 3.10, Generated on Sat Mar  8 22:39:10 2008
*            Plate
*            | Screen Grid
*            | | Control Grid
*            | | | Cathode
*            | | | |
.SUBCKT 6AU6 A G2 G1 K
BGG   GG   0 V=V(G1,K)+0.24107953
BM1   M1   0 V=(0.014176045*(URAMP(V(G2,K))+1e-10))**-0.93570358
BM2   M2   0 V=(0.61583848*(URAMP(V(GG)+URAMP(V(G2,K))/27.099343)))**2.4357036
BP    P    0 V=0.0032162308*(URAMP(V(GG)+URAMP(V(G2,K))/44.003978))**1.5
BIK   IK   0 V=U(V(GG))*V(P)+(1-U(V(GG)))*0.0020681021*V(M1)*V(M2)
BIG   IG   0 V=0.0016081154*URAMP(V(G1,K))**1.5*(URAMP(V(G1,K))/(URAMP(V(A,K))+URAMP(V(G1,K)))*1.2+0.4)
BIK2  IK2  0 V=V(IK,IG)*(1-0.4*(EXP(-URAMP(V(A,K))/URAMP(V(G2,K))*15)-EXP(-15)))
BIG2T IG2T 0 V=V(IK2)*(0.71681629*(1-URAMP(V(A,K))/(URAMP(V(A,K))+10))**1.5+0.28318371)
BIK3  IK3  0 V=V(IK2)*(URAMP(V(A,K))+15750)/(URAMP(V(G2,K))+15750)
BIK4  IK4  0 V=V(IK3)-URAMP(V(IK3)-(0.0017183702*(URAMP(V(A,K))+URAMP(URAMP(V(G2,K))-URAMP(V(A,K))))**1.5))
BIP   IP   0 V=URAMP(V(IK4,IG2T)-URAMP(V(IK4,IG2T)-(0.0017183702*URAMP(V(A,K))**1.5)))
BIAK  A    K I=V(IP)+1e-10*V(A,K)
BIG2  G2   K I=URAMP(V(IK4,IP))
BIGK  G1   K I=V(IG)
* CAPS
CGA   G1  A  0.0035p
CGK   G1  K  3.3p
C12   G1  G2 2.2p
CAK   A   K  5p
.ENDS
*
* Generic pentode model: 6BL8P
* Copyright 2003--2008 by Ayumi Nakabayashi, All rights reserved.
* Version 3.10, Generated on Sat Mar  8 22:39:14 2008
*             Plate
*             | Screen Grid
*             | | Control Grid
*             | | | Cathode
*             | | | |
.SUBCKT 6BL8P A G2 G1 K
BGG   GG   0 V=V(G1,K)+0.57453871
BM1   M1   0 V=(0.0091087169*(URAMP(V(G2,K))+1e-10))**-0.67124576
BM2   M2   0 V=(0.69084764*(URAMP(V(GG)+URAMP(V(G2,K))/33.940276)))**2.1712458
BP    P    0 V=0.0040028722*(URAMP(V(GG)+URAMP(V(G2,K))/49.128454))**1.5
BIK   IK   0 V=U(V(GG))*V(P)+(1-U(V(GG)))*0.0023332764*V(M1)*V(M2)
BIG   IG   0 V=0.0020014361*URAMP(V(G1,K))**1.5*(URAMP(V(G1,K))/(URAMP(V(A,K))+URAMP(V(G1,K)))*1.2+0.4)
BIK2  IK2  0 V=V(IK,IG)*(1-0.4*(EXP(-URAMP(V(A,K))/URAMP(V(G2,K))*15)-EXP(-15)))
BIG2T IG2T 0 V=V(IK2)*(0.79161587*(1-URAMP(V(A,K))/(URAMP(V(A,K))+10))**1.5+0.20838413)
BIK3  IK3  0 V=V(IK2)*(URAMP(V(A,K))+5830)/(URAMP(V(G2,K))+5830)
BIK4  IK4  0 V=V(IK3)-URAMP(V(IK3)-(0.0021242724*(URAMP(V(A,K))+URAMP(URAMP(V(G2,K))-URAMP(V(A,K))))**1.5))
BIP   IP   0 V=URAMP(V(IK4,IG2T)-URAMP(V(IK4,IG2T)-(0.0021242724*URAMP(V(A,K))**1.5)))
BIAK  A    K I=V(IP)+1e-10*V(A,K)
BIG2  G2   K I=URAMP(V(IK4,IP))
BIGK  G1   K I=V(IG)
* CAPS
CGA   G1  A  0.025p
CGK   G1  K  3.1p
C12   G1  G2 2.1p
CAK   A   K  3.4p
.ENDS
*
* Generic pentode model: 6BM8P
* Copyright 2003--2008 by Ayumi Nakabayashi, All rights reserved.
* Version 3.10, Generated on Sat Mar  8 22:39:18 2008
*             Plate
*             | Screen Grid
*             | | Control Grid
*             | | | Cathode
*             | | | |
.SUBCKT 6BM8P A G2 G1 K
BGG   GG   0 V=V(G1,K)+0.90753334
BM1   M1   0 V=(0.058205333*(URAMP(V(G2,K))+1e-10))**-0.96337515
BM2   M2   0 V=(0.60892065*(URAMP(V(GG)+URAMP(V(G2,K))/6.7189608)))**2.4633752
BP    P    0 V=0.0032859022*(URAMP(V(GG)+URAMP(V(G2,K))/11.034214))**1.5
BIK   IK   0 V=U(V(GG))*V(P)+(1-U(V(GG)))*0.0021448732*V(M1)*V(M2)
BIG   IG   0 V=0.0016429511*URAMP(V(G1,K))**1.5*(URAMP(V(G1,K))/(URAMP(V(A,K))+URAMP(V(G1,K)))*1.2+0.4)
BIK2  IK2  0 V=V(IK,IG)*(1-0.4*(EXP(-URAMP(V(A,K))/URAMP(V(G2,K))*15)-EXP(-15)))
BIG2T IG2T 0 V=V(IK2)*(0.8420837*(1-URAMP(V(A,K))/(URAMP(V(A,K))+10))**1.5+0.1579163)
BIK3  IK3  0 V=V(IK2)*(URAMP(V(A,K))+850)/(URAMP(V(G2,K))+850)
BIK4  IK4  0 V=V(IK3)-URAMP(V(IK3)-(0.002099612*(URAMP(V(A,K))+URAMP(URAMP(V(G2,K))-URAMP(V(A,K))))**1.5))
BIP   IP   0 V=URAMP(V(IK4,IG2T)-URAMP(V(IK4,IG2T)-(0.002099612*URAMP(V(A,K))**1.5)))
BIAK  A    K I=V(IP)+1e-10*V(A,K)
BIG2  G2   K I=URAMP(V(IK4,IP))
BIGK  G1   K I=V(IG)
* CAPS
CGA   G1  A  0.3p
CGK   G1  K  5.4p
C12   G1  G2 3.6p
CAK   A   K  7.7p
.ENDS
*
* Generic pentode model: 6BQ5
* Copyright 2003--2008 by Ayumi Nakabayashi, All rights reserved.
* Version 3.10, Generated on Sat Mar  8 22:39:19 2008
*            Plate
*            | Screen Grid
*            | | Control Grid
*            | | | Cathode
*            | | | |
.SUBCKT 6BQ5 A G2 G1 K
BGG   GG   0 V=V(G1,K)+0.03372597
BM1   M1   0 V=(0.014266539*(URAMP(V(G2,K))+1e-10))**-0.43210132
BM2   M2   0 V=(0.7763568*(URAMP(V(GG)+URAMP(V(G2,K))/15.676066)))**1.9321013
BP    P    0 V=0.0040800354*(URAMP(V(GG)+URAMP(V(G2,K))/20.191832))**1.5
BIK   IK   0 V=U(V(GG))*V(P)+(1-U(V(GG)))*0.0023829269*V(M1)*V(M2)
BIG   IG   0 V=0.0020400177*URAMP(V(G1,K))**1.5*(URAMP(V(G1,K))/(URAMP(V(A,K))+URAMP(V(G1,K)))*1.2+0.4)
BIK2  IK2  0 V=V(IK,IG)*(1-0.4*(EXP(-URAMP(V(A,K))/URAMP(V(G2,K))*15)-EXP(-15)))
BIG2T IG2T 0 V=V(IK2)*(0.904015183*(1-URAMP(V(A,K))/(URAMP(V(A,K))+10))**1.5+0.095984817)
BIK3  IK3  0 V=V(IK2)*(URAMP(V(A,K))+2486)/(URAMP(V(G2,K))+2486)
BIK4  IK4  0 V=V(IK3)-URAMP(V(IK3)-(0.0023468355*(URAMP(V(A,K))+URAMP(URAMP(V(G2,K))-URAMP(V(A,K))))**1.5))
BIP   IP   0 V=URAMP(V(IK4,IG2T)-URAMP(V(IK4,IG2T)-(0.0023468355*URAMP(V(A,K))**1.5)))
BIAK  A    K I=V(IP)+1e-10*V(A,K)
BIG2  G2   K I=URAMP(V(IK4,IP))
BIGK  G1   K I=V(IG)
* CAPS
CGA   G1  A  0.5p
CGK   G1  K  6.2p
C12   G1  G2 4.1p
CAK   A   K  6p
.ENDS
*
* Generic pentode model: 6BQ6
* Copyright 2003--2008 by Ayumi Nakabayashi, All rights reserved.
* Version 3.10, Generated on Sat Mar  8 22:39:21 2008
*            Plate
*            | Screen Grid
*            | | Control Grid
*            | | | Cathode
*            | | | |
.SUBCKT 6BQ6 A G2 G1 K
BGG   GG   0 V=V(G1,K)+-0.12830687
BM1   M1   0 V=(0.15009144*(URAMP(V(G2,K))+1e-10))**-1.2848724
BM2   M2   0 V=(0.53862432*(URAMP(V(GG)+URAMP(V(G2,K))/3.0739639)))**2.7848724
BP    P    0 V=0.0022372419*(URAMP(V(GG)+URAMP(V(G2,K))/5.7070648))**1.5
BIK   IK   0 V=U(V(GG))*V(P)+(1-U(V(GG)))*0.0018337045*V(M1)*V(M2)
BIG   IG   0 V=0.0011186209*URAMP(V(G1,K))**1.5*(URAMP(V(G1,K))/(URAMP(V(A,K))+URAMP(V(G1,K)))*1.2+0.4)
BIK2  IK2  0 V=V(IK,IG)*(1-0.4*(EXP(-URAMP(V(A,K))/URAMP(V(G2,K))*15)-EXP(-15)))
BIG2T IG2T 0 V=V(IK2)*(0.971797202*(1-URAMP(V(A,K))/(URAMP(V(A,K))+10))**1.5+0.028202798)
BIK3  IK3  0 V=V(IK2)*(URAMP(V(A,K))+1560)/(URAMP(V(G2,K))+1560)
BIK4  IK4  0 V=V(IK3)-URAMP(V(IK3)-(0.0017316916*(URAMP(V(A,K))+URAMP(URAMP(V(G2,K))-URAMP(V(A,K))))**1.5))
BIP   IP   0 V=URAMP(V(IK4,IG2T)-URAMP(V(IK4,IG2T)-(0.0017316916*URAMP(V(A,K))**1.5)))
BIAK  A    K I=V(IP)+1e-10*V(A,K)
BIG2  G2   K I=URAMP(V(IK4,IP))
BIGK  G1   K I=V(IG)
* CAPS
CGA   G1  A  0.6p
CGK   G1  K  8.7p
C12   G1  G2 5.8p
CAK   A   K  6.4p
.ENDS
*
* Generic pentode model: 6BR7
* Copyright 2003--2008 by Ayumi Nakabayashi, All rights reserved.
* Version 3.10, Generated on Sat Mar  8 22:39:24 2008
*            Plate
*            | Screen Grid
*            | | Control Grid
*            | | | Cathode
*            | | | |
.SUBCKT 6BR7 A G2 G1 K
BGG   GG   0 V=V(G1,K)+0.48180983
BM1   M1   0 V=(0.013959713*(URAMP(V(G2,K))+1e-10))**-0.49250535
BM2   M2   0 V=(0.75282106*(URAMP(V(GG)+URAMP(V(G2,K))/17.706591)))**1.9925054
BP    P    0 V=0.00084041925*(URAMP(V(GG)+URAMP(V(G2,K))/23.520318))**1.5
BIK   IK   0 V=U(V(GG))*V(P)+(1-U(V(GG)))*0.00048560243*V(M1)*V(M2)
BIG   IG   0 V=0.00042020962*URAMP(V(G1,K))**1.5*(URAMP(V(G1,K))/(URAMP(V(A,K))+URAMP(V(G1,K)))*1.2+0.4)
BIK2  IK2  0 V=V(IK,IG)*(1-0.4*(EXP(-URAMP(V(A,K))/URAMP(V(G2,K))*15)-EXP(-15)))