*******************************
*Varistor pspice model netlist*
*******************************
*
* © 	littelfuse inc.
*	5th march 2002
*	version 4.0
*
* representing typical characteristics for the following ha-series varistors: 
*
* v131ha32	 v131ha40
* v151ha32	 v151ha40
* v251ha32	 v251ha40
* v271ha32	 v271ha40
* v321ha32	 v321ha40
* v421ha32	 v421ha40
* v481ha32	 v481ha40
* v511ha32	 v511ha40
* v571ha32	 v571ha40
* v661ha32	 v661ha40
* v751ha32	 v751ha40
*
.Subckt hamov  1 2 params: t=1 c=1pf l=1nh a1=1 a2=0 a3=0 a4=0 a5=0 a6=100u a7=100u
e_non_lin	3 1 	value {t*(
+ 			a1+a2*(log10(limit(v(4),a7,1g))-3)
+			+a3*2**(-log10(limit(v(4),a7,1g))+3)
+			+a4*exp(-log10(limit(v(4),a7,1g))+3)
+ 			+a5*exp(log10(limit(v(4),a7,1g))-3)
+ 			-(a1+a2*(log10(-limit(v(4),-1g,-a7))-3)
+			+a3*2**(-log10(-limit(v(4),-1g,-a7))+3)
+			+a4*exp(-log10(-limit(v(4),-1g,-a7))+3)
+ 			+a5*exp(log10(-limit(v(4),-1g,-a7))-3))
+ 			+limit(v(4)/a7*v(8),-v(8),v(8)))}
l_series	5 6  {l}  rser=0 rpar=10
h_h1		4 0  vh_h1 1k
vh_h1		5 7 0v
r_r2		0 4  1g  
r_series	6 2  {a6}  
v_v1		3 7  0v
ve_x_zero	8 0 	 {a1+a2*(log10(a7/1e3))+a3*2**(-log10(a7/1e3))
+			+a4*exp(-log10(a7/1e3))+a5*exp(log10(a7/1e3))}
r_x_zero	8 0  1g
c_parallel	1 5 {c}
.Ends
*
.Subckt v131ha32 1 2 params: tol=0
x1	1 2	hamov params: t={1+tol/100} l=20nh c=4.7nf a1=252.2 a2=9.855 a3=-2.723 a4=0.1661 a5=3.837 a6=3.757e-3
.Ends
*
.Subckt v151ha32 1 2 params: tol=0
x1	1 2	hamov params: t={1+tol/100} l=20nh c=4nf a1=302.6 a2=11.83 a3=-3.268 a4=0.1993 a5=4.604 a6=4.509e-3
.Ends
*
.Subckt v251ha32 1 2 params: tol=0
x1	1 2	hamov params: t={1+tol/100} l=20nh c=2.5nf a1=491.8 a2=19.22 a3=-5.31 a4=0.3239 a5=7.481 a6=7.327e-3
.Ends
*
.Subckt v271ha32 1 2 params: tol=0
x1	1 2	hamov params: t={1+tol/100} l=20nh c=2.2nf a1=542.2 a2=21.19 a3=-5.854 a4=0.3571 a5=8.249 a6=8.078e-3
.Ends
*
.Subckt v321ha32 1 2 params: tol=0
x1	1 2	hamov params: t={1+tol/100} l=20nh c=1.9nf a1=643.1 a2=25.13 a3=-6.944 a4=0.4236 a5=9.783 a6=9.581e-3
.Ends
*
.Subckt v421ha32 1 2 params: tol=0
x1	1 2	hamov params: t={1+tol/100} l=20nh c=1.5nf a1=857.4 a2=33.51 a3=-9.258 a4=0.5648 a5=13.04 a6=12.77e-3
.Ends
*
.Subckt v481ha32 1 2 params: tol=0
x1	1 2	hamov params: t={1+tol/100} l=20nh c=1.3nf a1=945.7 a2=36.95 a3=-10.21 a4=0.6229 a5=14.39 a6=14.09e-3
.Ends
*
.Subckt v511ha32 1 2 params: tol=0
x1	1 2	hamov params: t={1+tol/100} l=20nh c=1.2nf a1=1034 a2=40.4 a3=-11.16 a4=0.681 a5=15.73 a6=15.41e-3
.Ends
*
.Subckt v571ha32 1 2 params: tol=0
x1	1 2	hamov params: t={1+tol/100} l=20nh c=1.1nf a1=1147 a2=44.84 a3=-12.39 a4=0.7558 a5=17.46 a6=17.1e-3
.Ends
*
.Subckt v661ha32 1 2 params: tol=0
x1	1 2	hamov params: t={1+tol/100} l=20nh c=1nf a1=1324 a2=51.74 a3=-14.3 a4=0.8721 a5=20.14 a6=19.73e-3
.Ends
*
.Subckt v751ha32 1 2 params: tol=0
x1	1 2	hamov params: t={1+tol/100} l=20nh c=800pf a1=1513 a2=59.13 a3=-16.34 a4=0.9966 a5=23.02 a6=22.54e-3
.Ends
*
.Subckt v131ha40 1 2 params: tol=0
x1	1 2	hamov params: t={1+tol/100} l=20nh c=10nf a1=250.3 a2=9.855 a3=-3.115 a4=0.2016 a5=3.161 a6=2.405e-3
.Ends
*
.Subckt v151ha40 1 2 params: tol=0
x1	1 2	hamov params: t={1+tol/100} l=20nh c=8nf a1=300.3 a2=11.83 a3=-3.737 a4=0.242 a5=3.793 a6=2.886e-3
.Ends
*
.Subckt v251ha40 1 2 params: tol=0
x1	1 2	hamov params: t={1+tol/100} l=20nh c=5nf a1=488 a2=19.22 a3=-6.073 a4=0.3932 a5=6.163 a6=4.689e-3
.Ends
*
.Subckt v271ha40 1 2 params: tol=0
x1	1 2	hamov params: t={1+tol/100} l=20nh c=4.5nf a1=538.1 a2=21.19 a3=-6.696 a4=0.4335 a5=6.795 a6=5.17e-3
.Ends
*
.Subckt v321ha40 1 2 params: tol=0
x1	1 2	hamov params: t={1+tol/100} l=20nh c=3.8nf a1=638.2 a2=25.13 a3=-7.942 a4=0.5142 a5=8.059 a6=6.132e-3
.Ends
*
.Subckt v421ha40 1 2 params: tol=0
x1	1 2	hamov params: t={1+tol/100} l=20nh c=3nf a1=850.9 a2=33.51 a3=-10.59 a4=0.6855 a5=10.75 a6=8.176e-3
.Ends
*
.Subckt v481ha40 1 2 params: tol=0
x1	1 2	hamov params: t={1+tol/100} l=20nh c=2.7nf a1=938.5 a2=36.95 a3=-11.68 a4=0.7561 a5=11.85 a6=9.018e-3
.Ends
*
.Subckt v511ha40 1 2 params: tol=0
x1	1 2	hamov params: t={1+tol/100} l=20nh c=2.5nf a1=1026 a2=40.4 a3=-12.77 a4=0.8267 a5=12.96 a6=9.859e-3
.Ends
*
.Subckt v571ha40 1 2 params: tol=0
x1	1 2	hamov params: t={1+tol/100} l=20nh c=2.2nf a1=1139 a2=44.84 a3=-14.17 a4=0.9174 a5=14.38 a6=10.94e-3
.Ends
*
.Subckt v661ha40 1 2 params: tol=0
x1	1 2	hamov params: t={1+tol/100} l=20nh c=2nf a1=1314 a2=51.74 a3=-16.35 a4=1.059 a5=16.59 a6=12.62e-3
.Ends
*
.Subckt v751ha40 1 2 params: tol=0
x1	1 2	hamov params: t={1+tol/100} l=20nh c=1.8nf a1=1502 a2=59.13 a3=-18.69 a4=1.21 a5=18.96 a6=14.43e-3
.Ends
*
*******************************
*varistor pspice model netlist*
*******************************
*
* © 	harris semiconductor
*	21st april 1998
*	version 3.1
*
* representing typical characteristics for the following la-series varistors: 
*
* v130la1	 v130la2	 v130la5	 v130la10a	 v130la20a	 v130la20b
* v140la2	 v140la5	 v140la10a	 v140la20a
* v150la1	 v150la2	 v150la5	 v150la10a	 v150la20a	 v150la20b
* v175la2	 v175la5	 v175la10a	 v175la20a
* v230la4	 v230la10	 v230la20a	 v230la40a
* v250la2	 v250la4 	 v250la10	 v250la20a	 v250la40a	 v250la40b
* v275la2 	 v275la4	 v275la10	 v275la20a	 v275la40a	 v275la40b
* v300la2	 v300la4	 v300la10	 v300la20a	 v300la40a
* v320la7	 v320la10	 v320la20a	 v320la40b
* v385la7	 v385la10	 v385la20a	 v385la40b
* v420la7	 v420la10	 v420la20a	 v420la40b
* v480la7	 v480la10	 v480la40a	 v480la80b
* v510la10	 v510la40a	 v510la80b
* v575la10	 v575la40a	 v575la80b
* v625al10	 v625la40a	 v625la80b
* v660la10	 v660la50a	 v660la100b
* v1000la80a	 v1000la160b
*
.Subckt mov  1 2 params: t=1 c=1pf l=1nh a1=1 a2=0 a3=0 a4=0 a5=0 a6=100u a7=100u

.Param v8=a1+a2*(log10(a7/1e3))+a3/(a7/1e3) + a4*exp(-log10(a7/1e3))+a5*exp(log10(a7/1e3))
be_non_lin 3 1 R=-V(X) rpar=1g

b_non_lin	0 X 	i=t*(
+ 			a1+a2*(log10(limit(v(4),a7,1g))-3)
+			+a3/limit(v(4)*.001,a7/1e3,1g)
+			+a4*exp(-log10(limit(v(4),a7,1g))+3)
+ 			+a5*exp(log10(limit(v(4),a7,1g))-3)
+ 			-(a1+a2*(log10(-limit(v(4),-1g,-a7))-3)
+			-a3/limit(v(4)*.001,-1g,-a7/1e3)
+			+a4*exp(-log10(-limit(v(4),-1g,-a7))+3)
+ 			+a5*exp(log10(-limit(v(4),-1g,-a7))-3))
+ 			+limit(v(4)/a7*v8,-v8,v8))/ i(vh_h1)  Rpar=1 Cpar=1n
l_series	5 2  {l}  rser={a6} rpar={5G*l}
*h_h1		4 0  vh_h1 1k
bh_h1	0	4  i=i(vh_h1)  Rpar=1k  Cpar=1p
*vh_h1		5 7 0v
vh_h1		5 3  

 
*v_v1		3 7  0v
*c_parallel	1 5 {c} 
c_parallel	1 2 {c}  rser=10
.Ends
*
.Subckt v130la1 1 2 params: tol=0
x1	1 2	mov params: t={1+tol/100} l=12nh c=180pf a1=269.3 a2=15.58 a3=-1.522e-5 a4=7.447e-2 a5=8.22 a6=65.2e-3
.Ends
*
.Subckt v130la2 1 2 params: tol=0
x1	1 2	mov params: t={1+tol/100} l=12nh c=180pf a1=251.5 a2=14.55 a3=-1.422e-5 a4=6.955e-2 a5=7.68 a6=60.9e-3
.Ends
*
.Subckt v130la5 1 2 params: tol=0
x1	1 2	mov params: t={1+tol/100} l=12nh c=450pf a1=257.1 a2=18.51 a3=-5.593e-5 a4=.1655 a5=3.839 a6=29.7e-3 a7=4e-4
.Ends
*
.Subckt v130la10a 1 2 params: tol=0
x1	1 2	mov params: t={1+tol/100} l=12nh c=1nf a1=248.4 a2=15.26 a3=-3.433e-5 a4=0.1078 a5=4.643 a6=7.345e-3 a7=4e-4
.Ends
*
.Subckt v130la20a 1 2 params: tol=0
x1	1 2	mov params: t={1+tol/100} l=12nh c=1.9nf a1=245.6 a2=13.53 a3=-3.912e-5 a4=39.94e-3 a5=3.576 a6=0.01458 a7=4e-4
.Ends
*
.Subckt v130la20b 1 2 params: tol=0
x1	1 2	mov params: t={1+tol/100} l=12nh c=1.9nf a1=240.9 a2=13.27 a3=-3.836e-5 a4=39.17e-3 a5=3.506 a6=0.01429 a7=4e-4
.Ends
*
.Subckt v140la2 1 2 params: tol=0
x1	1 2	mov params: t={1+tol/100} l=12nh c=160pf a1=269.9 a2=15.61 a3=-1.526e-5 a4=7.464e-2 a5=8.24 a6=65.4e-3
.Ends
*
.Subckt v140la5 1 2 params: tol=0
x1	1 2	mov params: t={1+tol/100} l=12nh c=400pf a1=275.9 a2=19.86 a3=-6.002e-5 a4=.1777 a5=4.12 a6=31.87e-3 a7=4e-4
.Ends
*
.Subckt v140la10a 1 2 params: tol=0
x1	1 2	mov params: t={1+tol/100} l=12nh c=900pf a1=266.6 a2=16.38 a3=-3.684e-5 a4=0.1157 a5=4.982 a6=7.883e-3 a7=4e-4
.Ends
*
.Subckt v140la20a 1 2 params: tol=0
x1	1 2	mov params: t={1+tol/100} l=12nh c=1.75nf a1=262.3 a2=14.45 a3=-4.177e-5 a4=42.66e-3 a5=3.819 a6=0.01557 a7=4e-4
.Ends
*
.Subckt v150la1 1 2 params: tol=0
x1	1 2	mov params: t={1+tol/100} l=12nh c=150pf a1=304.2 a2=17.6 a3=-1.72e-5 a4=8.414e-2 a5=9.29 a6=73.7e-3
.Ends
*
.Subckt v150la2 1 2 params: tol=0
x1	1 2	mov params: t={1+tol/100} l=12nh c=150pf a1=294.4 a2=17.03 a3=-1.665e-5 a4=8.142e-2 a5=8.99 a6=71.3e-3
.Ends
*
.Subckt v150la5 1 2 params: tol=0
x1	1 2	mov params: t={1+tol/100} l=12nh c=360pf a1=301 a2=21.67 a3=-6.548e-5 a4=.1938 a5=4.494 a6=34.77e-3 a7=4e-4
.Ends
*
.Subckt v150la10a 1 2 params: tol=0
x1	1 2	mov params: t={1+tol/100} l=12nh c=800pf a1=290.8 a2=17.87 a3=-4.019e-5 a4=0.1262 a5=5.435 a6=8.599e-3 a7=4e-4
.Ends
*
.Subckt v150la20a 1 2 params: tol=0
x1	1 2	mov params: t={1+tol/100} l=12nh c=1.6nf a1=286.2 a2=15.76 a3=-4.557e-5 a4=46.53e-3 a5=4.166 a6=0.01698 a7=4e-4
.Ends
*
.Subckt v150la20b 1 2 params: tol=0
x1	1 2	mov params: t={1+tol/100} l=12nh c=1.6nf a1=271.9 a2=14.97 a3=-4.329e-5 a4=44.21e-3 a5=3.958 a6=0.01613 a7=4e-4
.Ends
*
.Subckt v175la2 1 2 params: tol=0
x1	1 2	mov params: t={1+tol/100} l=12nh c=130pf a1=337.3 a2=19.52 a3=-1.907e-5 a4=9.33e-2 a5=10.3 a6=81.7e-3
.Ends
*
.Subckt v175la5 1 2 params: tol=0
x1	1 2	mov params: t={1+tol/100} l=12nh c=350pf a1=344.8 a2=24.83 a3=-7.503e-5 a4=.2221 a5=5.15 a6=39.84e-3 a7=4e-4
.Ends
*
.Subckt v175la10a 1 2 params: tol=0
x1	1 2	mov params: t={1+tol/100} l=12nh c=700pf a1=333.2 a2=20.47 a3=-4.606e-5 a4=0.1446 a5=6.228 a6=9.854e-3 a7=4e-4
.Ends
*
.Subckt v175la20a 1 2 params: tol=0
x1	1 2	mov params: t={1+tol/100} l=12nh c=1.4nf a1=327.9 a2=18.06 a3=-5.222e-5 a4=53.32e-3 a5=4.773 a6=0.01946 a7=4e-4
.Ends
*
.Subckt v230la4 1 2 params: tol=0
x1	1 2	mov params: t={1+tol/100} l=12nh c=100pf a1=441.6 a2=25.55 a3=-2.497e-5 a4=1.221e-1 a5=13.48 a6=107e-3
.Ends
*
.Subckt v230la10 1 2 params: tol=0
x1	1 2	mov params: t={1+tol/100} l=12nh c=250pf a1=451.4 a2=32.5 a3=-9.822e-5 a4=.2907 a5=6.741 a6=52.16e-3 a7=4e-4
.Ends
*
.Subckt v230la20a 1 2 params: tol=0
x1	1 2	mov params: t={1+tol/100} l=12nh c=550pf a1=436.3 a2=26.8 a3=-6.029e-5 a4=0.1894 a5=8.153 a6=12.9e-3 a7=4e-4
.Ends
*
.Subckt v230la40a 1 2 params: tol=0
x1	1 2	mov params: t={1+tol/100} l=12nh c=1.1nf a1=434.6 a2=23.55 a3=-3.898e-5 a4=-0.2066 a5=4.394 a6=0.02538 a7=4e-4
.Ends
*
.Subckt v250la2 1 2 params: tol=0
x1	1 2	mov params: t={1+tol/100} l=12nh c=90pf a1=507.8 a2=29.38 a3=-2.872e-5 a4=0.1405 a5=15.51 a6=0.123
.Ends
*
.Subckt v250la4 1 2 params: tol=0
x1	1 2	mov params: t={1+tol/100} l=12nh c=90pf a1=478.4 a2=27.68 a3=-2.705e-5 a4=0.1323 a5=14.61 a6=0.1159
.Ends
*
.Subckt v250la10 1 2 params: tol=0
x1	1 2	mov params: t={1+tol/100} l=12nh c=220pf a1=489.1 a2=35.21 a3=-1.064e-4 a4=.3149 a5=7.303 a6=56.5e-3 a7=4e-4
.Ends
*
.Subckt v250la20a 1 2 params: tol=0
x1	1 2	mov params: t={1+tol/100} l=12nh c=500pf a1=472.6 a2=29.03 a3=-6.532e-5 a4=0.2051 a5=8.833 a6=13.97e-3 a7=4e-4
.Ends
*
.Subckt v250la40a 1 2 params: tol=0
x1	1 2	mov params: t={1+tol/100} l=12nh c=1nf a1=473.3 a2=25.65 a3=-4.244e-5 a4=-0.225 a5=4.785 a6=0.02764 a7=4e-4
.Ends
*
.Subckt v250la40b 1 2 params: tol=0
x1	1 2	mov params: t={1+tol/100} l=12nh c=1nf a1=463.6 a2=25.12 a3=-4.157e-5 a4=-0.2204 a5=4.687 a6=0.02707 a7=4e-4
.Ends
*
.Subckt v275la2 1 2 params: tol=0
x1	1 2	mov params: t={1+tol/100} l=12nh c=80pf a1=554.4 a2=32.08 a3=-3.135e-5 a4=0.1533 a5=16.93 a6=0.1343
.Ends
*
.Subckt v275la4 1 2 params: tol=0
x1	1 2	mov params: t={1+tol/100} l=12nh c=80pf a1=527.5 a2=30.52 a3=-2.982e-5 a4=0.1459 a5=16.11 a6=0.1278
.Ends
*
.Subckt v275la10 1 2 params: tol=0
x1	1 2	mov params: t={1+tol/100} l=12nh c=200pf a1=539.2 a2=38.82 a3=-1.173e-4 a4=.3472 a5=8.052 a6=62.3e-3 a7=4e-4
.Ends
*
.Subckt v275la20a 1 2 params: tol=0
x1	1 2	mov params: t={1+tol/100} l=12nh c=450pf a1=521.1 a2=32.01 a3=-7.201e-5 a4=0.2262 a5=9.738 a6=15.41e-3 a7=4e-4
.Ends
*
.Subckt v275la40a 1 2 params: tol=0
x1	1 2	mov params: t={1+tol/100} l=12nh c=900pf a1=520.3 a2=28.2 a3=-4.666e-5 a4=-0.2474 a5=5.261 a6=0.03039 a7=4e-4
.Ends
*
.Subckt v275la40b 1 2 params: tol=0
x1	1 2	mov params: t={1+tol/100} l=12nh c=900pf a1=508.3 a2=27.54 a3=-4.558e-5 a4=-0.2416 a5=5.139 a6=0.02968 a7=4e-4
.Ends
*
.Subckt v300la2 1 2 params: tol=0
x1	1 2	mov params: t={1+tol/100} l=12nh c=70pf a1=604.7 a2=34.99 a3=-3.419e-5 a4=0.1673 a5=18.47 a6=0.1465
.Ends
*
.Subckt v300la4 1 2 params: tol=0
x1	1 2	mov params: t={1+tol/100} l=12nh c=70pf a1=576.5 a2=33.36 a3=-3.26e-5 a4=0.1594 a5=17.6 a6=0.1397
.Ends
*
.Subckt v300la10 1 2 params: tol=0
x1	1 2	mov params: t={1+tol/100} l=12nh c=180pf a1=589.4 a2=42.44 a3=-1.282e-4 a4=.3795 a5=8.801 a6=68.09e-3 a7=4e-4
.Ends
*
.Subckt v300la20a 1 2 params: tol=0
x1	1 2	mov params: t={1+tol/100} l=12nh c=400pf a1=569.6 a2=34.99 a3=-7.871e-5 a4=0.2472 a5=10.64 a6=16.84e-3 a7=4e-4
.Ends
*
.Subckt v300la40a 1 2 params: tol=0
x1	1 2	mov params: t={1+tol/100} l=12nh c=800pf a1=565 a2=30.62 a3=-5.067e-5 a4=-0.2686 a5=5.712 a6=0.033 a7=4e-4
.Ends
*
.Subckt v320la7 1 2 params: tol=0
x1	1 2	mov params: t={1+tol/100} l=12nh c=65pf a1=625.6 a2=36.19 a3=-3.537e-5 a4=0.173 a5=19.1 a6=0.1516
.Ends
*
.Subckt v320la10 1 2 params: tol=0
x1	1 2	mov params: t={1+tol/100} l=12nh c=170pf a1=639.5 a2=46.05 a3=-1.391e-4 a4=0.4118 a5=9.55 a6=73.89e-3 a7=4e-4
.Ends
*
.Subckt v320la20a 1 2 params: tol=0
x1	1 2	mov params: t={1+tol/100} l=12nh c=380pf a1=618 a2=37.97 a3=-8.541e-5 a4=0.2682 a5=11.55 a6=18.27e-3 a7=4e-4
.Ends
*
.Subckt v320la40b 1 2 params: tol=0
x1	1 2	mov params: t={1+tol/100} l=12nh c=750pf a1=620.6 a2=33.63 a3=-5.565e-5 a4=-0.295 a5=6.274 a6=0.03624 a7=4e-4
.Ends
*
.Subckt v385la7 1 2 params: tol=0
x1	1 2	mov params: t={1+tol/100} l=12nh c=60pf a1=760.5 a2=44 a3=-4.3e-5 a4=0.2103 a5=23.22 a6=0.1843
.Ends
*
.Subckt v385la10 1 2 params: tol=0
x1	1 2	mov params: t={1+tol/100} l=12nh c=160pf a1=777.5 a2=55.98 a3=-1.692e-4 a4=.5007 a5=11.61 a6=89.82e-3 a7=4e-4
.Ends
*
.Subckt v385la20a 1 2 params: tol=0
x1	1 2	mov params: t={1+tol/100} l=12nh c=360pf a1=751.3 a2=46.16 a3=-1.038e-4 a4=0.3261 a5=14.04 a6=22.22e-3 a7=4e-4
.Ends
*
.Subckt v385la40b 1 2 params: tol=0
x1	1 2	mov params: t={1+tol/100} l=12nh c=700pf a1=748.5 a2=40.56 a3=-6.713e-5 a4=-0.3559 a5=7.568 a6=0.04371 a7=4e-4
.Ends
*
.Subckt v420la7 1 2 params: tol=0
x1	1 2	mov params: t={1+tol/100} l=12nh c=55pf a1=834.1 a2=48.26 a3=-4.717e-5 a4=0.2307 a5=25.47 a6=0.2021
.Ends
*
.Subckt v420la10 1 2 params: tol=0
x1	1 2	mov params: t={1+tol/100} l=12nh c=140pf a1=852.7 a2=61.4 a3=-1.885e-4 a4=.5491 a5=12.73 a6=98.52e-3 a7=4e-4
.Ends
*
.Subckt v420la20a 1 2 params: tol=0
x1	1 2	mov params: t={1+tol/100} l=12nh c=300pf a1=824 a2=50.62 a3=-1.139e-4 a4=0.3577 a5=15.4 a6=24.37e-3 a7=4e-4
.Ends
*
.Subckt v420la40b 1 2 params: tol=0
x1	1 2	mov params: t={1+tol/100} l=12nh c=600pf a1=819.8 a2=44.42 a3=-7.351e-5 a4=-0.3897 a5=8.288 a6=0.04787 a7=4e-4
.Ends
*
.Subckt v480la7 1 2 params: tol=0
x1	1 2	mov params: t={1+tol/100} l=12nh c=55pf a1=920 a2=53.23 a3=-5.202e-5 a4=0.2544 a5=28.09 a6=0.2229
.Ends
*
.Subckt v480la10 1 2 params: tol=0
x1	1 2	mov params: t={1+tol/100} l=12nh c=120pf a1=940.5 a2=67.72 a3=-2.046e-4 a4=.6056 a5=14.04 a6=0.1087 a7=4e-4
.Ends
*
.Subckt v480la40a 1 2 params: tol=0
x1	1 2	mov params: t={1+tol/100} l=12nh c=270pf a1=908.9 a2=55.83 a3=-1.256e-4 a4=0.3945 a5=16.99 a6=26.87e-3 a7=4e-4
.Ends
*
.Subckt v480la80b 1 2 params: tol=0
x1	1 2	mov params: t={1+tol/100} l=12nh c=550pf a1=901.9 a2=48.87 a3=-8.088e-5 a4=-0.4288 a5=9.118 a6=0.05267 a7=4e-4
.Ends
*
.Subckt v510la10 1 2 params: tol=0
x1	1 2	mov params: t={1+tol/100} l=12nh c=100pf a1=1028 a2=74.04 a3=-2.237e-4 a4=.6622 a5=15.36 a6=0.1188 a7=4e-4
.Ends
*
.Subckt v510la40a 1 2 params: tol=0
x1	1 2	mov params: t={1+tol/100} l=12nh c=250pf a1=993.7 a2=61.05 a3=-1.373e-4 a4=0.4313 a5=18.57 a6=29.38e-3 a7=4e-4
.Ends
*
.Subckt v510la80b 1 2 params: tol=0
x1	1 2	mov params: t={1+tol/100} l=12nh c=500pf a1=963.4 a2=52.21 a3=-8.64e-5 a4=-0.458 a5=9.74 a6=0.05626 a7=4e-4
.Ends
*
.Subckt v575la10 1 2 params: tol=0
x1	1 2	mov params: t={1+tol/100} l=12nh c=90pf a1=1129 a2=81.26 a3=-2.456e-4 a4=.7268 a5=16.85 a6=0.1304 a7=4e-4
.Ends
*
.Subckt v575la40a 1 2 params: tol=0
x1	1 2	mov params: t={1+tol/100} l=12nh c=220pf a1=1091 a2=67 a3=-1.507e-4 a4=0.4734 a5=20.38 a6=32.25e-3 a7=4e-4
.Ends
*
.Subckt v575la80b 1 2 params: tol=0
x1	1 2	mov params: t={1+tol/100} l=12nh c=450pf a1=1066 a2=57.77 a3=-9.56e-5 a4=-0.5068 a5=10.78 a6=0.06226 a7=4e-4
.Ends
*
.Subckt v625la10 1 2 params: tol=0
x1	1 2	mov params: t={1+tol/100} l=12nh c=80pf a1=1254 a2=90.29 a3=-2.728e-4 a4=.8075 a5=18.73 a6=0.1449 a7=4e-4
.Ends
*
.Subckt v625la40a 1 2 params: tol=0
x1	1 2	mov params: t={1+tol/100} l=12nh c=210pf a1=1212 a2=74.45 a3=-1.675e-4 a4=0.526 a5=22.65 a6=35.83e-3 a7=4e-4
.Ends
*
.Subckt v625la80b 1 2 params: tol=0
x1	1 2	mov params: t={1+tol/100} l=12nh c=425pf a1=1231 a2=66.73 a3=-1.104e-4 a4=-0.5855 a5=12.45 a6=0.07191 a7=4e-4
.Ends
*
.Subckt v660la10 1 2 params: tol=0
x1	1 2	mov params: t={1+tol/100} l=12nh c=70pf a1=1348 a2=97.06 a3=-2.933e-4 a4=0.8681 a5=20.13 a6=0.1557 a7=4e-4
.Ends
*
.Subckt v660la50a 1 2 params: tol=0
x1	1 2	mov params: t={1+tol/100} l=12nh c=200pf a1=1303 a2=80.03 a3=-1.8e-4 a4=0.5654 a5=24.35 a6=38.52e-3 a7=4e-4
.Ends
*
.Subckt v660la100b 1 2 params: tol=0
x1	1 2	mov params: t={1+tol/100} l=12nh c=400pf a1=1231 a2=66.73 a3=-1.104e-4 a4=-0.5855 a5=12.45 a6=0.07191 a7=4e-4
.Ends
*
.Subckt v1000la80a 1 2 params: tol=0
x1	1 2	mov params: t={1+tol/100} l=12nh c=130pf a1=1957 a2=120.2 a3=-2.705e-4 a4=0.8494 a5=36.58 a6=57.87e-3 a7=4e-4
.Ends
*
.Subckt v1000la160b 1 2 params: tol=0
x1	1 2	mov params: t={1+tol/100} l=12nh c=250pf a1=1827 a2=98.99 a3=-1.638e-4 a4=-0.8684 a5=18.47 a6=0.1067 a7=4e-4
.Ends
*
*******************************
*varistor pspice model netlist*
*******************************
*
* © 	harris suppression products
*     a business unit of littelfuse inc.
*
*     December 3, 1999
*	version 4.2
*
* representing typical characteristics for the following mla-, mle- and aumla-series varistors: 
*
* v3.5mla0603 v5.5mla0603 v9mla0603 v14mla0603 
* v18mla0603 v26mla0603 v30mla0603 
*
* v3.5mla0805 v5.5mla0805 v14mla0805 v18mla0805
* v26mla0805 
*
* v3.5mla0805l v5.5mla0805l v9mla0805l v12mla0805l 
* v14mla0805l v18mla0805l v26mla0805l v30mla0805l
*
* v3.5mla1206 v5.5mla1206 v14mla1206 v18mla1206
* v26mla1206 v33mla1206 v42mla1206 v56mla1206
* v68mla1206 
*
* v18mla1210 v26mla1210 v30mla1210 v48mla1210 
* v60mla1210 v85mla1210 v120mla1210 
*
* v30mla1210l v48mla1210l
*
* v18aumla2220 v18aumla1812 v18aumla1210 v18aumla1206
*
* v18mle0603 v18mle0805 v18mle0805l v18mle1206
*
*
*
.Subckt mlmov  1 2 params: t=1 c=1pf l=1nh a1=1 a2=0 a3=0 a4=0 a5=0 a6=100u a7=100u
enonln1	3 1	value {t*(
+	10**(
+	+a1+a2*(log10(limit(v(4),a7,1g))-3)
+	+a3*2**(-log10(limit(v(4),a7,1g))+3)
+	+a4*exp(-log10(limit(v(4),a7,1g))+3)
+	+a5*exp(log10(limit(v(4),a7,1g))-3)
+	+a6*2**(log10(limit(v(4),a7,1g))-3)
+	)
+	-10**(
+	a1+a2*(log10(-limit(v(4),-1g,-a7))-3)
+	+a3*2**(-log10(-limit(v(4),-1g,-a7))+3)
+	+a4*exp(-log10(-limit(v(4),-1g,-a7))+3)
+	+a5*exp(log10(-limit(v(4),-1g,-a7))-3)
+	+a6*2**(log10(-limit(v(4),-1g,-a7))-3)
+	)
+	+limit(v(4)/a7*v(8),-v(8),v(8))
+	)}
l_series	5 6  {l}  rser=0 rpar={5G*l}
h_h1		4 0  vh_h1 1k
vh_h1		5 70 0v
r_r2		0 4  1g  
r_series	6 2  100u  
v_v1		3 70  0v
ve_x_zero	8 0 	 {10**(
+	a1+a2*(log10(a7/1e3))
+	+a3*2**(-log10(a7/1e3))
+	+a4*exp(-log10(a7/1e3))
+	+a5*exp(log10(a7/1e3))
+	+a6*2**(log10(a7/1e3))
+	)}
r_x_zero	8 0  1g
c_parallel	1 5 {c}
.Ends
.Subckt v3pt5mla0603 1 2 params: tol=0
x1	1 2	mlmov params: t={1+tol/100} l=1nh c=1.1nf a1=0.8328 a2=6.278e-2 a3=1.418e-2 a4=-2.047e-3 a5=1.778e-2 a6=9.065e-2
.Ends
*
.Subckt v5pt5mla0603 1 2 params: tol=0
x1	1 2	mlmov params: t={1+tol/100} l=1nh c=660pf a1=1.018 a2=6.278e-2 a3=1.418e-2 a4=-2.047e-3 a5=1.778e-2 a6=9.065e-2
.Ends
*
.Subckt v9mla0603 1 2 params: tol=0
x1	1 2	mlmov params: t={1+tol/100} l=1nh c=420pf a1=1.454 a2=0.1467 a3=0.02598 a4=-3.182e-3 a5=0.1367 a6=-0.2794
.Ends
*
.Subckt v14mla0603 1 2 params: tol=0
x1	1 2	mlmov params: t={1+tol/100} l=1nh c=150pf a1=1.582 a2=0.1467 a3=0.02598 a4=-3.182e-3 a5=0.1367 a6=-0.2794
.Ends
*
.Subckt v18mla0603 1 2 params: tol=0
x1	1 2	mlmov params: t={1+tol/100} l=1nh c=125pf a1=1.566 a2=0.0709 a3=9.496e-3 a4=-1.201e-3 a5=7.945e-2 a6=-8.674e-2
.Ends
*
.Subckt v18mle0603 1 2 params: tol=0
x1	1 2	mlmov params: t={1+tol/100} l=1nh c=125pf a1=1.566 a2=0.0709 a3=9.496e-3 a4=-1.201e-3 a5=7.945e-2 a6=-8.674e-2
.Ends
*
.Subckt v18mle0603l 1 2 params: tol=0
x1	1 2	mlmov params: t={1+tol/100} l=1nh c=60pf a1=1.581 a2=0.07091 a3=8.142e-3 a4=-9.616e-4 a5=9.942e-2 a6=-0.1014
.Ends
*
.Subckt v26mla0603 1 2 params: tol=0
x1	1 2	mlmov params: t={1+tol/100} l=1nh c=90pf a1=1.706 a2=0.0709 a3=9.496e-3 a4=-1.201e-3 a5=7.945e-2 a6=-8.674e-2
.Ends
*
.Subckt v30mla0603 1 2 params: tol=0
x1	1 2	mlmov params: t={1+tol/100} l=1nh c=75pf a1=1.786 a2=0.0709 a3=9.496e-3 a4=-1.201e-3 a5=7.945e-2 a6=-8.674e-2
.Ends
*
.Subckt v18mla1210 1 2 params: tol=0
x1	1 2	mlmov params: t={1+tol/100} l=1nh c=1250pf a1=1.579 a2=0.09722 a3=0.027833 a4=-4.832e-3 a5=0.06432 a6=-0.1449
.Ends
*
.Subckt v26mla1210 1 2 params: tol=0
x1	1 2	mlmov params: t={1+tol/100} l=1nh c=1nf a1=1.651 a2=0.06252 a3=0.01648 a4=-2.811e-3 a5=0.04796 a6=-0.0742
.Ends
*
.Subckt v30mla1210 1 2 params: tol=0
x1	1 2	mlmov params: t={1+tol/100} l=1nh c=1.575nf a1=1.71 a2=0.06252 a3=0.01648 a4=-2.811e-3 a5=0.04796 a6=-0.0742
.Ends
*
.Subckt v48mla1210 1 2 params: tol=0
x1	1 2	mlmov params: t={1+tol/100} l=1nh c=450pf a1=1.706 a2=-0.0422 a3=-0.00955 a4=2.331e-4 a5=-.04556 a6=0.1886
.Ends
*
.Subckt v60mla1210 1 2 params: tol=0
x1	1 2	mlmov params: t={1+tol/100} l=1nh c=375pf a1=1.799 a2=-0.0422 a3=-0.00955 a4=2.331e-4 a5=-.04556 a6=0.1886
.Ends
*
.Subckt v85mla1210 1 2 params: tol=0
x1	1 2	mlmov params: t={1+tol/100} l=1nh c=225pf a1=1.945 a2=-0.0422 a3=-0.00955 a4=2.331e-4 a5=-.04556 a6=0.1886
.Ends
*
.Subckt v120mla1210 1 2 params: tol=0
x1	1 2	mlmov params: t={1+tol/100} l=1nh c=65pf a1=2.233 a2=0.02499 a3=0.00452 a4=-9.542e-4 a5=0.02925 a6=-0.00593
.Ends
*
.Subckt v30mla1210l 1 2 params: tol=0
x1	1 2	mlmov params: t={1+tol/100} l=1nh c=1.53nf a1=1.71 a2=0.06252 a3=0.01648 a4=-2.811e-3 a5=0.04796 a6=-0.0742
.Ends
*
.Subckt v48mla1210l 1 2 params: tol=0
x1	1 2	mlmov params: t={1+tol/100} l=1nh c=430pf a1=1.706 a2=-0.0422 a3=-0.00955 a4=2.331e-4 a5=-.04556 a6=0.1886
.Ends
*
.Subckt v3pt5mla1206 1 2 params: tol=0
x1	1 2	mlmov params: t={1+tol/100} l=1nh c=6nf a1=0.907 a2=0.09247 a3=2.223e-2 a4=-3.342e-3 a5=0.06777 a6=-0.1232
.Ends
*
.Subckt v5pt5mla1206 1 2 params: tol=0
x1	1 2	mlmov params: t={1+tol/100} l=1nh c=4.5nf a1=1.093 a2=0.09247 a3=2.223e-2 a4=-3.342e-3 a5=0.06777 a6=-0.1232
.Ends
*
.Subckt v14mla1206 1 2 params: tol=0
x1	1 2	mlmov params: t={1+tol/100} l=1nh c=1.6nf a1=1.386 a2=0.05368 a3=7.598e-3 a4=-1.077e-3 a5=0.04129 a6=-0.06871
.Ends
*
.Subckt v18mla1206 1 2 params: tol=0
x1	1 2	mlmov params: t={1+tol/100} l=1nh c=1.1nf a1=1.526 a2=0.05368 a3=7.598e-3 a4=-1.077e-3 a5=0.04129 a6=-0.06871
.Ends
*
.Subckt v18mle1206 1 2 params: tol=0
x1	1 2	mlmov params: t={1+tol/100} l=1nh c=1.1nf a1=1.526 a2=0.05368 a3=7.598e-3 a4=-1.077e-3 a5=0.04129 a6=-0.06871
.Ends
*
.Subckt v26mla1206 1 2 params: tol=0
x1	1 2	mlmov params: t={1+tol/100} l=1nh c=900pf a1=1.655 a2=0.06112 a3=1.328e-2 a4=-1.995e-3 a5=0.04145 a6=-0.07086
.Ends
*
.Subckt v33mla1206 1 2 params: tol=0
x1	1 2	mlmov params: t={1+tol/100} l=1nh c=550pf a1=1.762 a2=0.06112 a3=1.328e-2 a4=-1.995e-3 a5=0.04145 a6=-0.07086
.Ends
*
.Subckt v42mla1206 1 2 params: tol=0
x1	1 2	mlmov params: t={1+tol/100} l=1nh c=550pf a1=1.848 a2=0.06112 a3=1.328e-2 a4=-1.995e-3 a5=0.04145 a6=-0.07086
.Ends
*
.Subckt v56mla1206 1 2 params: tol=0
x1	1 2	mlmov params: t={1+tol/100} l=1nh c=150pf a1=1.908 a2=0.02679 a3=3.536e-3 a4=-7.262e-4 a5=0.04608 a6=-0.03745
.Ends
*
.Subckt v68mla1206 1 2 params: tol=0
x1	1 2	mlmov params: t={1+tol/100} l=1nh c=150pf a1=1.988 a2=0.02679 a3=3.536e-3 a4=-7.262e-4 a5=0.04608 a6=-0.03745
.Ends
*
.Subckt v3pt5mla0805 1 2 params: tol=0
x1	1 2	mlmov params: t={1+tol/100} l=1nh c=2.2nf a1=1.026 a2=0.1944 a3=4.071e-2 a4=-5.078e-3 a5=0.1594 a6=-0.3414
.Ends
*
.Subckt v5pt5mla0805 1 2 params: tol=0
x1	1 2	mlmov params: t={1+tol/100} l=1nh c=1.6nf a1=1.277 a2=0.1944 a3=4.071e-2 a4=-5.078e-3 a5=0.1594 a6=-0.3414
.Ends
*
.Subckt v14mla0805 1 2 params: tol=0
x1	1 2	mlmov params: t={1+tol/100} l=1nh c=480pf a1=1.359 a2=0.0465 a3=9.33e-3 a4=-1.827e-3 a5=0.02188 a6=-0.004146
.Ends
*
.Subckt v18mla0805 1 2 params: tol=0
x1	1 2	mlmov params: t={1+tol/100} l=1nh c=450pf a1=1.504 a2=0.0465 a3=9.33e-3 a4=-1.827e-3 a5=0.02188 a6=-0.004146
.Ends
*
.Subckt v18mle0805 1 2 params: tol=0
x1	1 2	mlmov params: t={1+tol/100} l=1nh c=450pf a1=1.504 a2=0.0465 a3=9.33e-3 a4=-1.827e-3 a5=0.02188 a6=-0.004146
.Ends
*
.Subckt v26mla0805 1 2 params: tol=0
x1	1 2	mlmov params: t={1+tol/100} l=1nh c=190pf a1=1.632 a2=0.0465 a3=9.33e-3 a4=-1.827e-3 a5=0.02188 a6=-0.004146
.Ends
*
.Subckt v3pt5mla0805l 1 2 params: tol=0
x1	1 2	mlmov params: t={1+tol/100} l=1nh c=1.2nf a1=0.865 a2=0.069 a3=1.21e-2 a4=-1.656e-3 a5=0.0249 a6=0.04338
.Ends
*
.Subckt v5pt5mla0805l 1 2 params: tol=0
x1	1 2	mlmov params: t={1+tol/100} l=1nh c=860pf a1=1.051 a2=0.069 a3=1.21e-2 a4=-1.656e-3 a5=0.0249 a6=0.04338
.Ends
*
.Subckt v9mla0805l 1 2 params: tol=0
x1	1 2	mlmov params: t={1+tol/100} l=1nh c=450pf a1=1.266 a2=0.0753 a3=1.053e-2 a4=-1.227e-3 a5=0.03887 a6=-0.03557
.Ends
*
.Subckt v12mla0805l 1 2 params: tol=0
x1	1 2	mlmov params: t={1+tol/100} l=1nh c=350pf a1=1.381 a2=0.0753 a3=1.053e-2 a4=-1.227e-3 a5=0.03887 a6=-0.03557
.Ends
*
.Subckt v14mla0805l 1 2 params: tol=0
x1	1 2	mlmov params: t={1+tol/100} l=1nh c=270pf a1=1.426 a2=0.0753 a3=1.053e-2 a4=-1.227e-3 a5=0.03887 a6=-0.03557
.Ends
*
.Subckt v18mla0805l 1 2 params: tol=0
x1	1 2	mlmov params: t={1+tol/100} l=1nh c=250pf a1=1.567 a2=0.0753 a3=1.053e-2 a4=-1.227e-3 a5=0.03887 a6=-0.03557
.Ends
*
.Subckt v18mle0805l 1 2 params: tol=0
x1	1 2	mlmov params: t={1+tol/100} l=1nh c=250pf a1=1.567 a2=0.0753 a3=1.053e-2 a4=-1.227e-3 a5=0.03887 a6=-0.03557
.Ends
*
.Subckt v26mla0805l 1 2 params: tol=0
x1	1 2	mlmov params: t={1+tol/100} l=1nh c=115pf a1=1.7 a2=0.0753 a3=1.053e-2 a4=-1.227e-3 a5=0.03887 a6=-0.03557
.Ends
*
.Subckt v30mla0805l 1 2 params: tol=0
x1	1 2	mlmov params: t={1+tol/100} l=1nh c=80pf a1=1.787 a2=0.0753 a3=1.053e-2 a4=-1.227e-3 a5=0.03887 a6=-0.03557
.Ends
*
.Subckt v18aumla2220 1 2 params: tol=0
x1	1 2	mlmov params: t={1+tol/100} l=1nh c=19nf a1=1.624 a2=0.0901 a3=1.336e-2 a4=-1.732e-3 a5=0.1175 a6=-0.2438
.Ends
*
.Subckt v18aumla1812 1 2 params: tol=0
x1	1 2	mlmov params: t={1+tol/100} l=1nh c=1.2nf a1=1.523 a2=0.04106 a3=5.46e-3 a4=-1.088e-3 a5=0.0878 a6=-0.1104
.Ends
*
.Subckt v18aumla1210 1 2 params: tol=0
x1	1 2	mlmov params: t={1+tol/100} l=1nh c=900pf a1=1.61 a2=0.08893 a3=1.552e-2 a4=-2.149e-3 a5=0.1169 a6=-0.22
.Ends
*
.Subckt v18aumla1206 1 2 params: tol=0
x1	1 2	mlmov params: t={1+tol/100} l=1nh c=200pf a1=1.483 a2=0.02273 a3=1.217e-3 a4=-2.461e-4 a5=-.0068 a6=0.08386
.Ends
*
* ptc_phil1.Lib
*
* ptc model based on an article from timo veijola
* "large-signal simulation model for ptc thermistor"
* http://www.Aplac.Hut.Fi/publications/ecctd-1999-1/ptc99.Pdf
* extracting the paramters for new devices looks difficult, but
* it's one of the very few sources about ptc resistors.
* This ptc-model is also used in tina-spice. 
* They have some models of ptcs(philips?) In their demo version.
* Http://focus.Ti.Com/docs/toolsw/folders/print/tina-ti.Html
*
* a large signal ptc model
*
* grain boundary resistance rs (ptc)
* grain resistance rv (ntc)
* (.) Are references to formulas in the article
* vt = k*t/q
* 1/egb(t) = 1/emax + 1/2*(1+tanh((t-ts)/c))  (4)
* iv = uv/rv*exp(beta/tnom - beta/t)   (9)
* is = 1/r0*exp(-a/egb(t)*(tnom/t)**(eta)) * f(us)    (7)
* f(us) = k*t/(e*m)*tanh(e*m*us/(k*t))*exp(e*sqrt(|n*us|)/(k*t)   (8)
* f(us) = vt/m*tanh(m*us/vt)*exp(sqrt(|n*us|)/vt)
* tabs = tamb + tk + pd*rth\ntk=273.15
* p=us*is+iv*uv

* from paragraph 3.5, model parameters
* model ptc66091008 user_model
*   r0= 11.32 er= 29030 ts= 372.5
*   a= 11.85 c= 28.07 eta= 0.307
*   rv= 34.60 b= 525.6 m = 0.010
*   n= 0.000815 rth= 164.7
*
* ptc 2322 660 91008 from philips
* 
.Subckt ptc66091008_vj 1 2 tc
*
* general constants
.Param tk=273.15 tamb=25  t25=298.15
.Param k=1.3806503e-23  q=1.602176462e-19
* 
.Param r0=11.32
.Param ts=372.5 ; switch temperature
.Param emax=29.03k; maxiumum value of egb
.Param c=28.07 ;resistance slope
.Param a=11.85 ;scaling coefficient
.Param eta=307m ;temperature exponent
.Param m=10m ; nonlinearity coefficient
.Param n=815u ; nonlinearity coefficient
*
.Param rv=34.6 ; grain resistance at 25c
.Param b=525.6 ; b-value of rv
.Param rth=164.7 
*
.Param ttau=5 ; my guess

* ptc part
vis 1 n002 0
bs n002 10 i=1/r0*exp(-a/v(egb)*(t25/v(tptc))**eta)*
+v(vt)/m*tanh(m*v(1,10)/v(vt))*exp(sqrt(abs(n*v(1,10)))/v(vt))
cs 1 10 1n
*
* ntc part
viv 10 n003 0
bv n003 2 i=v(10,2)/(rv*exp(b*(1/v(tptc)-1/t25)))
cv 10 2 1n
*
* vt=k*t/e  e=q=electron charge
rvt vt 0 1
bvt 0 vt i=k*v(tptc)/q
* i=boltz*v(tptc)/echarge
*
* egb(t))
regb egb 0 1
begb 0 egb i={1/(1/emax+0.5*(1+tanh((v(tptc)-ts)/c)))}
*
* power dissipation
rp pd 0 1
bp 0 pd i=v(1,10)*i(vis)+v(10,2)*i(viv)
*
* thermal model
rt tptc n004 {rth}
vt n004 0 {tamb+tk}
gt 0 tptc pd 0 1
ct tptc 0 {ttau/rth}
*
* v(tc) is temperature in degree c
g1 0 tc tptc 0 1
r3 tc 0 1
i1 tc 0 {tk}
*
.Ends ptc66091008_vj
*
*
* ===============================================
* pspice-simulationsmodell für s+m zno-varistoren
* ===============================================
*
* epcos ohg, deutschlandsberg
*
* "siov.Lib" version 4.1  -  1. Nov. 1999
*
*
*
* grundmodell:
* ============
*
.Subckt siov 1 2 params: t=1 c=1pf l=1nh b1=1 b2=1 b3=0 b4=0
r_series  1 3 100u
l_series  3 4 {l} rser=0
v_i_sense 4 5 0v
h_i_sense 6 0 v_i_sense 10k
r_i_sense 6 0 1g
e_var     5 2 value={t*(
+ pwr(10,
+ b1+b2*(log10(limit(v(6),1m,100g))-4)+b3*exp(-log10(limit(v(6),1m,100g))+4)+b4*exp(log10(limit(v(6),1m,100g))-4)
+ )
+ -pwr(10,