**********
* Bourns Inc
* SPICE Models
* 1.5SMCxxxCA Family
* 2019/11/07
**********
**********
.SUBCKT 1.5SMC6.8CA  1   2
*       TERMINALS:   T1  T2
Done    1            3   Dtvs
Dtwo    2            3   Dtvs
Rleak   1            2   0.070meg
.MODEL  Dtvs         D   (IS=1.0e-5 RS=0.0031 N=1.5 IBV=10m BV=6.8 CJO=600p)
.ENDS

.SUBCKT 1.5SMC7.5CA  1   2
*       TERMINALS:   T1  T2
Done    1            3   Dtvs
Dtwo    2            3   Dtvs
Rleak   1            2   0.150meg
.MODEL  Dtvs         D   (IS=1.0e-5 RS=0.0045 N=1.5 IBV=10m BV=7.51 CJO=5300p)
.ENDS

.SUBCKT 1.5SMC8.2CA  1   2
*       TERMINALS:   T1  T2
Done    1            3   Dtvs
Dtwo    2            3   Dtvs
Rleak   1            2   0.320meg
.MODEL  Dtvs         D   (IS=1.0e-5 RS=0.0065 N=1.5 IBV=10m BV=8.20 CJO=4900p)
.ENDS

.SUBCKT 1.5SMC9.1CA  1   2
*       TERMINALS:   T1  T2
Done    1            3   Dtvs
Dtwo    2            3   Dtvs
Rleak   1            2   1.800meg
.MODEL  Dtvs         D   (IS=1.0e-5 RS=0.0078 N=1.5 IBV=1m BV=9.10 CJO=4400p)
.ENDS

.SUBCKT 1.5SMC10CA   1   2
*       TERMINALS:   T1  T2
Done    1            3   Dtvs
Dtwo    2            3   Dtvs
Rleak   1            2   4meg
.MODEL  Dtvs         D   (IS=1.0e-5 RS=0.0093 N=1.5 IBV=1m BV=10.00 CJO=4000p)
.ENDS

.SUBCKT 1.5SMC11CA   1   2
*       TERMINALS:   T1  T2
Done    1            3   Dtvs
Dtwo    2            3   Dtvs
Rleak   1            2   22meg
.MODEL  Dtvs         D   (IS=1.0e-5 RS=0.0134 N=1.5 IBV=1m BV=11.05 CJO=3800p)
.ENDS

.SUBCKT 1.5SMC12CA   1   2
*       TERMINALS:   T1  T2
Done    1            3   Dtvs
Dtwo    2            3   Dtvs
Rleak   1            2   24meg
.MODEL  Dtvs         D   (IS=1.0e-5 RS=0.0148 N=1.5 IBV=1m BV=12.00 CJO=3600p)
.ENDS

.SUBCKT 1.5SMC13CA   1   2
*       TERMINALS:   T1  T2
Done    1            3   Dtvs
Dtwo    2            3   Dtvs
Rleak   1            2   26meg
.MODEL  Dtvs         D   (IS=1.0e-5 RS=0.0179 N=1.5 IBV=1m BV=13.05 CJO=3300p)
.ENDS

.SUBCKT 1.5SMC15CA   1   2
*       TERMINALS:   T1  T2
Done    1            3   Dtvs
Dtwo    2            3   Dtvs
Rleak   1            2   30meg
.MODEL  Dtvs         D   (IS=1.0e-5 RS=0.0216 N=1.5 IBV=1m BV=15.05 CJO=2900p)
.ENDS

.SUBCKT 1.5SMC16CA   1   2
*       TERMINALS:   T1  T2
Done    1            3   Dtvs
Dtwo    2            3   Dtvs
Rleak   1            2   32meg
.MODEL  Dtvs         D   (IS=1.0e-5 RS=0.0238 N=1.5 IBV=1m BV=16.00 CJO=2700p)
.ENDS

.SUBCKT 1.5SMC18CA   1   2
*       TERMINALS:   T1  T2
Done    1            3   Dtvs
Dtwo    2            3   Dtvs
Rleak   1            2   36meg
.MODEL  Dtvs         D   (IS=1.0e-5 RS=0.0348 N=1.5 IBV=1m BV=18.00 CJO=2300p)
.ENDS

.SUBCKT 1.5SMC20CA   1   2
*       TERMINALS:   T1  T2
Done    1            3   Dtvs
Dtwo    2            3   Dtvs
Rleak   1            2   40meg
.MODEL  Dtvs         D   (IS=1.0e-5 RS=0.0421 N=1.5 IBV=1m BV=20.00 CJO=2000p)
.ENDS

.SUBCKT 1.5SMC22CA    1   2
*       TERMINALS:   T1  T2
Done    1            3   Dtvs
Dtwo    2            3   Dtvs
Rleak   1            2   44meg
.MODEL  Dtvs         D   (IS=1.0e-5 RS=0.0207 N=1.5 IBV=1m BV=22.00 CJO=1900p)
.ENDS

.SUBCKT 1.5SMC24CA   1   2
*       TERMINALS:   T1  T2
Done    1            3   Dtvs
Dtwo    2            3   Dtvs
Rleak   1            2   48meg
.MODEL  Dtvs         D   (IS=1.0e-5 RS=0.0261 N=1.5 IBV=1m BV=24.00 CJO=1800p)
.ENDS

.SUBCKT 1.5SMC27CA   1   2
*       TERMINALS:   T1  T2
Done    1            3   Dtvs
Dtwo    2            3   Dtvs
Rleak   1            2   54meg
.MODEL  Dtvs         D   (IS=1.0e-5 RS=0.0287 N=1.5 IBV=1m BV=27.05 CJO=1650p)
.ENDS

.SUBCKT 1.5SMC30CA   1   2
*       TERMINALS:   T1  T2
Done    1            3   Dtvs
Dtwo    2            3   Dtvs
Rleak   1            2   60meg
.MODEL  Dtvs         D   (IS=1.0e-5 RS=0.0348 N=1.5 IBV=1m BV=30.00 CJO=1450p)
.ENDS

.SUBCKT 1.5SMC33CA   1   2
*       TERMINALS:   T1  T2
Done    1            3   Dtvs
Dtwo    2            3   Dtvs
Rleak   1            2   66meg
.MODEL  Dtvs         D   (IS=1.0e-5 RS=0.0421 N=1.5 IBV=1m BV=33.05 CJO=1350p)
.ENDS

.SUBCKT 1.5SMC36CA   1   2
*       TERMINALS:   T1  T2
Done    1            3   Dtvs
Dtwo    2            3   Dtvs
Rleak   1            2   72meg
.MODEL  Dtvs         D   (IS=1.0e-5 RS=0.0463 N=1.5 IBV=1m BV=36.00 CJO=1250p)
.ENDS

.SUBCKT 1.5SMC39CA   1   2
*       TERMINALS:   T1  T2
Done    1            3   Dtvs
Dtwo    2            3   Dtvs
Rleak   1            2   78meg
.MODEL  Dtvs         D   (IS=1.0e-5 RS=0.0560 N=1.5 IBV=1m BV=39.05 CJO=1100p)
.ENDS

.SUBCKT 1.5SMC43CA   1   2
*       TERMINALS:   T1  T2
Done    1            3   Dtvs
Dtwo    2            3   Dtvs
Rleak   1            2   86meg
.MODEL  Dtvs         D   (IS=1.0e-5 RS=0.0678 N=1.5 IBV=1m BV=43.05 CJO=950p)
.ENDS

.SUBCKT 1.5SMC47CA   1   2
*       TERMINALS:   T1  T2
Done    1            3   Dtvs
Dtwo    2            3   Dtvs
Rleak   1            2   94meg
.MODEL  Dtvs         D   (IS=1.0e-5 RS=0.0820 N=1.5 IBV=1m BV=47.05 CJO=880p)
.ENDS

.SUBCKT 1.5SMC51CA   1   2
*       TERMINALS:   T1  T2
Done    1            3   Dtvs
Dtwo    2            3   Dtvs
Rleak   1            2   102meg
.MODEL  Dtvs         D   (IS=1.0e-5 RS=0.0993 N=1.5 IBV=1m BV=51.05 CJO=810p)
.ENDS

.SUBCKT 1.5SMC56CA   1   2
*       TERMINALS:   T1  T2
Done    1            3   Dtvs
Dtwo    2            3   Dtvs
Rleak   1            2   112meg
.MODEL  Dtvs         D   (IS=1.0e-5 RS=0.1201 N=1.5 IBV=1m BV=56.00 CJO=730p)
.ENDS

.SUBCKT 1.5SMC62CA   1   2
*       TERMINALS:   T1  T2
Done    1            3   Dtvs
Dtwo    2            3   Dtvs
Rleak   1            2   124meg
.MODEL  Dtvs         D   (IS=1.0e-5 RS=0.1387 N=1.5 IBV=1m BV=62.00 CJO=670p)
.ENDS

.SUBCKT 1.5SMC68CA   1   2
*       TERMINALS:   T1  T2
Done    1            3   Dtvs
Dtwo    2            3   Dtvs
Rleak   1            2   136meg
.MODEL  Dtvs         D   (IS=1.0e-5 RS=0.1758 N=1.5 IBV=1m BV=68.00 CJO=600p)
.ENDS

.SUBCKT 1.5SMC75CA   1   2
*       TERMINALS:   T1  T2
Done    1            3   Dtvs
Dtwo    2            3   Dtvs
Rleak   1            2   150meg
.MODEL  Dtvs         D   (IS=1.0e-5 RS=0.2128 N=1.5 IBV=1m BV=75.05 CJO=550p)
.ENDS

.SUBCKT 1.5SMC82CA   1   2
*       TERMINALS:   T1  T2
Done    1            3   Dtvs
Dtwo    2            3   Dtvs
Rleak   1            2   164meg
.MODEL  Dtvs         D   (IS=1.0e-5 RS=0.2832 N=1.5 IBV=1m BV=82.00 CJO=500p)
.ENDS

.SUBCKT 1.5SMC91CA   1   2
*       TERMINALS:   T1  T2
Done    1            3   Dtvs
Dtwo    2            3   Dtvs
Rleak   1            2   182meg
.MODEL  Dtvs         D   (IS=1.0e-5 RS=0.3426 N=1.5 IBV=1m BV=91.00 CJO=460p)
.ENDS

.SUBCKT 1.5SMC100CA  1   2
*       TERMINALS:   T1  T2
Done    1            3   Dtvs
Dtwo    2            3   Dtvs
Rleak   1            2   200meg
.MODEL  Dtvs         D   (IS=1.0e-5 RS=0.3958 N=1.5 IBV=1m BV=100.00 CJO=410p)
.ENDS

.SUBCKT 1.5SMC110CA  1   2
*       TERMINALS:   T1  T2
Done    1            3   Dtvs
Dtwo    2            3   Dtvs
Rleak   1            2   220meg
.MODEL  Dtvs         D   (IS=1.0e-5 RS=0.4925 N=1.5 IBV=1m BV=110.50 CJO=390p)
.ENDS

.SUBCKT 1.5SMC120CA  1   2
*       TERMINALS:   T1  T2
Done    1            3   Dtvs
Dtwo    2            3   Dtvs
Rleak   1            2   240meg
.MODEL  Dtvs         D   (IS=1.0e-5 RS=0.6701 N=1.5 IBV=1m BV=120.00 CJO=370p)
.ENDS

.SUBCKT 1.5SMC130CA  1   2
*       TERMINALS:   T1  T2
Done    1            3   Dtvs
Dtwo    4            3   Dtvs
Dthr    4            5   Dtvs
Dfou    2            5   Dtvs
Rleak   1            2   260meg
.MODEL  Dtvs         D   (IS=1.0e-5 RS=0.3196 N=1.5 IBV=1m BV=130.50 CJO=340p)
.ENDS

.SUBCKT 1.5SMC150CA  1   2
*       TERMINALS:   T1  T2
Done    1            3   Dtvs
Dtwo    4            3   Dtvs
Dthr    4            5   Dtvs
Dfou    2            5   Dtvs
Rleak   1            2   300meg
.MODEL  Dtvs         D   (IS=1.0e-5 RS=0.4256 N=1.5 IBV=1m BV=150.50 CJO=300p)
.ENDS

.SUBCKT 1.5SMC160CA  1   2
*       TERMINALS:   T1  T2
Done    1            3   Dtvs
Dtwo    4            3   Dtvs
Dthr    4            5   Dtvs
Dfou    2            5   Dtvs
Rleak   1            2   320meg
.MODEL  Dtvs         D   (IS=1.0e-5 RS=0.5148 N=1.5 IBV=1m BV=160.00 CJO=280p)
.ENDS

.SUBCKT 1.5SMC170CA  1   2
*       TERMINALS:   T1  T2
Done    1            3   Dtvs
Dtwo    4            3   Dtvs
Dthr    4            5   Dtvs
Dfou    2            5   Dtvs
Rleak   1            2   340meg
.MODEL  Dtvs         D   (IS=1.0e-5 RS=0.5946 N=1.5 IBV=1m BV=170.50 CJO=260p)
.ENDS

.SUBCKT 1.5SMC180CA  1   2
*       TERMINALS:   T1  T2
Done    1            3   Dtvs
Dtwo    4            3   Dtvs
Dthr    4            5   Dtvs
Dfou    2            5   Dtvs
Rleak   1            2   360meg
.MODEL  Dtvs         D   (IS=1.0e-5 RS=0.6542 N=1.5 IBV=1m BV=180.00 CJO=240p)
.ENDS

.SUBCKT 1.5SMC200CA  1   2
*       TERMINALS:   T1  T2
Done    1            3   Dtvs
Dtwo    4            3   Dtvs
Dthr    4            5   Dtvs
Dfou    2            5   Dtvs
Rleak   1            2   400meg
.MODEL  Dtvs         D   (IS=1.0e-5 RS=0.7916 N=1.5 IBV=1m BV=200.00 CJO=210p)
.ENDS

.SUBCKT 1.5SMC220CA  1   2
*       TERMINALS:   T1  T2
Done    1            3   Dtvs
Dtwo    4            3   Dtvs
Dthr    4            5   Dtvs
Dfou    2            5   Dtvs
Rleak   1            2   440meg
.MODEL  Dtvs         D   (IS=1.0e-5 RS=0.985 N=1.5 IBV=1m BV=220.00 CJO=195p)
.ENDS

.SUBCKT 1.5SMC250CA  1   2
*       TERMINALS:   T1  T2
Done    1            3   Dtvs
Dtwo    4            3   Dtvs
Dthr    4            5   Dtvs
Dfou    2            5   Dtvs
Rleak   1            2   500meg
.MODEL  Dtvs         D   (IS=1.0e-5 RS=1.5054 N=1.5 IBV=1m BV=250.00 CJO=180p)
.ENDS

.SUBCKT 1.5SMC300CA  1   2
*       TERMINALS:   T1  T2
Done    1            3   Dtvs
Dtwo    4            3   Dtvs
Dthr    4            5   Dtvs
Dfou    2            5   Dtvs
Rleak   1            2   600meg
.MODEL  Dtvs         D   (IS=1.0e-5 RS=1.9692 N=1.5 IBV=1m BV=300.00 CJO=150p)
.ENDS

.SUBCKT 1.5SMC350CA  1   2
*       TERMINALS:   T1  T2
Done    1            3   Dtvs
Dtwo    4            3   Dtvs
Dthr    4            5   Dtvs
Dfou    2            5   Dtvs
Rleak   1            2   700meg
.MODEL  Dtvs         D   (IS=1.0e-5 RS=1.149 N=1.5 IBV=1m BV=350.00 CJO=130p)
.ENDS

.SUBCKT 1.5SMC400CA  1   2
*       TERMINALS:   T1  T2
Done    1            3   Dtvs
Dtwo    4            3   Dtvs
Dthr    4            5   Dtvs
Dfou    2            5   Dtvs
Rleak   1            2   800meg
.MODEL  Dtvs         D   (IS=1.0e-5 RS=1.8234 N=1.5 IBV=1m BV=400.00 CJO=110p)
.ENDS

.SUBCKT 1.5SMC440CA  1   2
*       TERMINALS:   T1  T2
Done    1            3   Dtvs
Dtwo    4            3   Dtvs
Dthr    4            5   Dtvs
Dfou    2            5   Dtvs
Rleak   1            2   880meg
.MODEL  Dtvs         D   (IS=1.0e-5 RS=2.2968 N=1.5 IBV=1m BV=440.00 CJO=97p)
.ENDS

.SUBCKT 1.5SMC480CA  1   2
*       TERMINALS:   T1  T2
Done    1            3   Dtvs
Dtwo    4            3   Dtvs
Dthr    4            5   Dtvs
Dfou    2            5   Dtvs
Rleak   1            2   960meg
.MODEL  Dtvs         D   (IS=1.0e-5 RS=3.1248 N=1.5 IBV=1m BV=480.00 CJO=88p)
.ENDS

.SUBCKT 1.5SMC510CA  1   2
*       TERMINALS:   T1  T2
Done    1            3   Dtvs
Dtwo    4            3   Dtvs
Dthr    4            5   Dtvs
Dfou    2            5   Dtvs
Rleak   1            2   1020meg
.MODEL  Dtvs         D   (IS=1.0e-5 RS=3.3748 N=1.5 IBV=1m BV=510.00 CJO=83p)
.ENDS

.SUBCKT 1.5SMC530CA  1   2
*       TERMINALS:   T1  T2
Done    1            3   Dtvs
Dtwo    4            3   Dtvs
Dthr    4            5   Dtvs
Dfou    2            5   Dtvs
Rleak   1            2   1060meg
.MODEL  Dtvs         D   (IS=1.0e-5 RS=3.9364 N=1.5 IBV=1m BV=530.00 CJO=81p)
.ENDS

.SUBCKT 1.5SMC540CA  1   2
*       TERMINALS:   T1  T2
Done    1            3   Dtvs
Dtwo    4            3   Dtvs
Dthr    4            5   Dtvs
Dfou    2            5   Dtvs
Rleak   1            2   1080meg
.MODEL  Dtvs         D   (IS=1.0e-5 RS=4.0938 N=1.5 IBV=1m BV=540.00 CJO=78p)
.ENDS

.SUBCKT 1.5SMC550CA  1   2
*       TERMINALS:   T1  T2
Done    1            3   Dtvs
Dtwo    4            3   Dtvs
Dthr    4            5   Dtvs
Dfou    2            5   Dtvs
Rleak   1            2   1100meg
.MODEL  Dtvs         D   (IS=1.0e-5 RS=4.2514 N=1.5 IBV=1m BV=550.00 CJO=75p)
.ENDS