**********
* Bourns Inc.,
* SPICE Models
* 5.0SMDJxxxA Family
* 2019/11/13
**********
**********

.SUBCKT 5.0SMDJ5.0A  1   2
*       TERMINALS:   A   K
Done    1            2   Dtvs
Rleak   1            2   0.013meg
.MODEL  Dtvs         D   (IS=1.0e-5 RS=0.0025 N=1.5 IBV=10m BV=6.7 CJO=38000p)
.ENDS

.SUBCKT 5.0SMDJ6.0A  1   2
*       TERMINALS:   A   K
Done    1            2   Dtvs
Rleak   1            2   0.015meg
.MODEL  Dtvs         D   (IS=1.0e-5 RS=0.0031 N=1.5 IBV=10m BV=7.02 CJO=36000p)
.ENDS

.SUBCKT 5.0SMDJ6.5A  1   2
*       TERMINALS:   A   K
Done    1            2   Dtvs
Rleak   1            2   0.026meg
.MODEL  Dtvs         D   (IS=1.0e-5 RS=0.0045 N=1.5 IBV=10m BV=7.60 CJO=33000p)
.ENDS

.SUBCKT 5.0SMDJ7.0A  1   2
*       TERMINALS:   A   K
Done    1            2   Dtvs
Rleak   1            2   0.070meg
.MODEL  Dtvs         D   (IS=1.0e-5 RS=0.0065 N=1.5 IBV=10m BV=8.19 CJO=30500p)
.ENDS

.SUBCKT 5.0SMDJ7.5A  1   2
*       TERMINALS:   A   K
Done    1            2   Dtvs
Rleak   1            2   0.150meg
.MODEL  Dtvs         D   (IS=1.0e-5 RS=0.0078 N=1.5 IBV=1m BV=8.77 CJO=28500p)
.ENDS

.SUBCKT 5.0SMDJ8.0A  1   2
*       TERMINALS:   A   K
Done    1            2   Dtvs
Rleak   1            2   0.320meg
.MODEL  Dtvs         D   (IS=1.0e-5 RS=0.0093 N=1.5 IBV=1m BV=9.36 CJO=26500p)
.ENDS

.SUBCKT 5.0SMDJ8.5A  1   2
*       TERMINALS:   A   K
Done    1            2   Dtvs
Rleak   1            2   0.850meg
.MODEL  Dtvs         D   (IS=1.0e-5 RS=0.0093 N=1.5 IBV=1m BV=9.92 CJO=25000p)
.ENDS

.SUBCKT 5.0SMDJ9.0A  1   2
*       TERMINALS:   A   K
Done    1            2   Dtvs
Rleak   1            2   1.800meg
.MODEL  Dtvs         D   (IS=1.0e-5 RS=0.0112 N=1.5 IBV=1m BV=10.55 CJO=24000p)
.ENDS

.SUBCKT 5.0SMDJ10A   1   2
*       TERMINALS:   A   K
Done    1            2   Dtvs
Rleak   1            2   4meg
.MODEL  Dtvs         D   (IS=1.0e-5 RS=0.0134 N=1.5 IBV=1m BV=11.70 CJO=21500p)
.ENDS

.SUBCKT 5.0SMDJ11A   1   2
*       TERMINALS:   A   K
Done    1            2   Dtvs
Rleak   1            2   22meg
.MODEL  Dtvs         D   (IS=1.0e-5 RS=0.0163 N=1.5 IBV=1m BV=12.85 CJO=20000p)
.ENDS

.SUBCKT 5.0SMDJ12A   1   2
*       TERMINALS:   A   K
Done    1            2   Dtvs
Rleak   1            2   24meg
.MODEL  Dtvs         D   (IS=1.0e-5 RS=0.0197 N=1.5 IBV=1m BV=14.00 CJO=18000p)
.ENDS

.SUBCKT 5.0SMDJ13A   1   2
*       TERMINALS:   A   K
Done    1            2   Dtvs
Rleak   1            2   26meg
.MODEL  Dtvs         D   (IS=1.0e-5 RS=0.0216 N=1.5 IBV=1m BV=15.15 CJO=17000p)
.ENDS

.SUBCKT 5.0SMDJ14A   1   2
*       TERMINALS:   A   K
Done    1            2   Dtvs
Rleak   1            2   28meg
.MODEL  Dtvs         D   (IS=1.0e-5 RS=0.0249 N=1.5 IBV=1m BV=16.40 CJO=15500p)
.ENDS

.SUBCKT 5.0SMDJ15A   1   2
*       TERMINALS:   A   K
Done    1            2   Dtvs
Rleak   1            2   30meg
.MODEL  Dtvs         D   (IS=1.0e-5 RS=0.0316 N=1.5 IBV=1m BV=17.60 CJO=14500p)
.ENDS

.SUBCKT 5.0SMDJ16A   1   2
*       TERMINALS:   A   K
Done    1            2   Dtvs
Rleak   1            2   32meg
.MODEL  Dtvs         D   (IS=1.0e-5 RS=0.0365 N=1.5 IBV=1m BV=18.75 CJO=13000p)
.ENDS

.SUBCKT 5.0SMDJ17A   1   2
*       TERMINALS:   A   K
Done    1            2   Dtvs
Rleak   1            2   34meg
.MODEL  Dtvs         D   (IS=1.0e-5 RS=0.0402 N=1.5 IBV=1m BV=19.90 CJO=11500p)
.ENDS

.SUBCKT 5.0SMDJ18A   1   2
*       TERMINALS:   A   K
Done    1            2   Dtvs
Rleak   1            2   36meg
.MODEL  Dtvs         D   (IS=1.0e-5 RS=0.0442 N=1.5 IBV=1m BV=21.05 CJO=11000p)
.ENDS

.SUBCKT 5.0SMDJ20A   1   2
*       TERMINALS:   A   K
Done    1            2   Dtvs
Rleak   1            2   40meg
.MODEL  Dtvs         D   (IS=1.0e-5 RS=0.0535 N=1.5 IBV=1m BV=23.35 CJO=9600p)
.ENDS

.SUBCKT 5.0SMDJ22A   1   2
*       TERMINALS:   A   K
Done    1            2   Dtvs
Rleak   1            2   44meg
.MODEL  Dtvs         D   (IS=1.0e-5 RS=0.0588 N=1.5 IBV=1m BV=25.65 CJO=8800p)
.ENDS

.SUBCKT 5.0SMDJ24A   1   2
*       TERMINALS:   A   K
Done    1            2   Dtvs
Rleak   1            2   48meg
.MODEL  Dtvs         D   (IS=1.0e-5 RS=0.0820 N=1.5 IBV=1m BV=28.10 CJO=7200p)
.ENDS

.SUBCKT 5.0SMDJ26A   1   2
*       TERMINALS:   A   K
Done    1            2   Dtvs
Rleak   1            2   52meg
.MODEL  Dtvs         D   (IS=1.0e-5 RS=0.0902 N=1.5 IBV=1m BV=30.40 CJO=6700p)
.ENDS

.SUBCKT 5.0SMDJ28A   1   2
*       TERMINALS:   A   K
Done    1            2   Dtvs
Rleak   1            2   56meg
.MODEL  Dtvs         D   (IS=1.0e-5 RS=0.1042 N=1.5 IBV=1m BV=32.75 CJO=6200p)
.ENDS

.SUBCKT 5.0SMDJ30A   1   2
*       TERMINALS:   A   K
Done    1            2   Dtvs
Rleak   1            2   60meg
.MODEL  Dtvs         D   (IS=1.0e-5 RS=0.1261 N=1.5 IBV=1m BV=35.05 CJO=5500p)
.ENDS

.SUBCKT 5.0SMDJ33A   1   2
*       TERMINALS:   A   K
Done    1            2   Dtvs
Rleak   1            2   66meg
.MODEL  Dtvs         D   (IS=1.0e-5 RS=0.1526 N=1.5 IBV=1m BV=38.65 CJO=720p)
.ENDS

.SUBCKT 5.0SMDJ36A   1   2
*       TERMINALS:   A   K
Done    1            2   Dtvs
Rleak   1            2   72meg
.MODEL  Dtvs         D   (IS=1.0e-5 RS=0.1846 N=1.5 IBV=1m BV=42.10 CJO=5000p)
.ENDS

.SUBCKT 5.0SMDJ40A   1   2
*       TERMINALS:   A   K
Done    1            2   Dtvs
Rleak   1            2   80meg
.MODEL  Dtvs         D   (IS=1.0e-5 RS=0.2234 N=1.5 IBV=1m BV=46.75 CJO=4500p)
.ENDS

.SUBCKT 5.0SMDJ43A   1   2
*       TERMINALS:   A   K
Done    1            2   Dtvs
Rleak   1            2   86meg
.MODEL  Dtvs         D   (IS=1.0e-5 RS=0.2703 N=1.5 IBV=1m BV=50.30 CJO=4100p)
.ENDS

.SUBCKT 5.0SMDJ45A   1   2
*       TERMINALS:   A   K
Done    1            2   Dtvs
Rleak   1            2   90meg
.MODEL  Dtvs         D   (IS=1.0e-5 RS=0.3271 N=1.5 IBV=1m BV=52.65 CJO=3900p)
.ENDS

.SUBCKT 5.0SMDJ48A   1   2
*       TERMINALS:   A   K
Done    1            2   Dtvs
Rleak   1            2   96meg
.MODEL  Dtvs         D   (IS=1.0e-5 RS=0.3597 N=1.5 IBV=1m BV=56.10 CJO=3700p)
.ENDS

.SUBCKT 5.0SMDJ51A   1   2
*       TERMINALS:   A   K
Done    1            2   Dtvs
Rleak   1            2   102meg
.MODEL  Dtvs         D   (IS=1.0e-5 RS=0.3958 N=1.5 IBV=1m BV=59.70 CJO=3500p)
.ENDS

.SUBCKT 5.0SMDJ54A   1   2
*       TERMINALS:   A   K
Done    1            2   Dtvs
Rleak   1            2   108meg
.MODEL  Dtvs         D   (IS=1.0e-5 RS=0.4743 N=1.5 IBV=1m BV=63.15 CJO=3300p)
.ENDS

.SUBCKT 5.0SMDJ58A   1   2
*       TERMINALS:   A   K
Done    1            2   Dtvs
Rleak   1            2   116meg
.MODEL  Dtvs         D   (IS=1.0e-5 RS=0.5122 N=1.5 IBV=1m BV=67.80 CJO=3000p)
.ENDS

.SUBCKT 5.0SMDJ60A   1   2
*       TERMINALS:   A   K
Done    1            2   Dtvs
Rleak   1            2   120meg
.MODEL  Dtvs         D   (IS=1.0e-5 RS=0.5532 N=1.5 IBV=1m BV=70.20 CJO=2800p)
.ENDS

.SUBCKT 5.0SMDJ64A   1   2
*       TERMINALS:   A   K
Done    1            2   Dtvs
Rleak   1            2   128meg
.MODEL  Dtvs         D   (IS=1.0e-5 RS=0.5975 N=1.5 IBV=1m BV=74.85 CJO=2600p)
.ENDS

.SUBCKT 5.0SMDJ70A   1   2
*       TERMINALS:   A   K
Done    1            2   Dtvs
Rleak   1            2   140meg
.MODEL  Dtvs         D   (IS=1.0e-5 RS=0.7527 N=1.5 IBV=1m BV=81.90 CJO=2400p)
.ENDS

.SUBCKT 5.0SMDJ75A   1   2
*       TERMINALS:   A   K
Done    1            2   Dtvs
Rleak   1            2   150meg
.MODEL  Dtvs         D   (IS=1.0e-5 RS=0.8779 N=1.5 IBV=1m BV=87.70 CJO=2200p)
.ENDS

.SUBCKT 5.0SMDJ78A   1   2
*       TERMINALS:   A   K
Done    1            2   Dtvs
Rleak   1            2   156meg
.MODEL  Dtvs         D   (IS=1.0e-5 RS=0.9481 N=1.5 IBV=1m BV=91.25 CJO=2100p)
.ENDS

.SUBCKT 5.0SMDJ85A   1   2
*       TERMINALS:   A   K
Done    1            2   Dtvs
Rleak   1            2   170meg
.MODEL  Dtvs         D   (IS=1.0e-5 RS=1.1944 N=1.5 IBV=1m BV=99.20 CJO=1950p)
.ENDS

.SUBCKT 5.0SMDJ90A   1   2
*       TERMINALS:   A   K
Done    1            2   Dtvs
Rleak   1            2   180meg
.MODEL  Dtvs         D   (IS=1.0e-5 RS=1.3931 N=1.5 IBV=1m BV=105.50 CJO=1850p)
.ENDS

.SUBCKT 5.0SMDJ100A  1   2
*       TERMINALS:   A   K
Done    1            2   Dtvs
Rleak   1            2   200meg
.MODEL  Dtvs         D   (IS=1.0e-5 RS=1.7549 N=1.5 IBV=1m BV=117.00 CJO=1750p)
.ENDS

.SUBCKT 5.0SMDJ110A  1   2
*       TERMINALS:   A   K
Done    1            2   Dtvs
Rleak   1            2   220meg
.MODEL  Dtvs         D   (IS=1.0e-5 RS=2.0469 N=1.5 IBV=1m BV=128.50 CJO=1600p)
.ENDS

.SUBCKT 5.0SMDJ120A  1   2
*       TERMINALS:   A   K
Done    1            2   Dtvs
Rleak   1            2   240meg
.MODEL  Dtvs         D   (IS=1.0e-5 RS=2.4794 N=1.5 IBV=1m BV=140.00 CJO=1500p)
.ENDS

.SUBCKT 5.0SMDJ130A  1   2
*       TERMINALS:   A   K
Done    1            2   Dtvs
Rleak   1            2   260meg
.MODEL  Dtvs         D   (IS=1.0e-5 RS=2.7848 N=1.5 IBV=1m BV=151.50 CJO=1400p)
.ENDS

.SUBCKT 5.0SMDJ150A 1   2
*       TERMINALS:   A   K
Done    1            2   Dtvs
Rleak   1            2   300meg
.MODEL  Dtvs         D   (IS=1.0e-5 RS=4.0918 N=1.5 IBV=1m BV=176.00 CJO=1100p)
.ENDS

.SUBCKT 5.0SMDJ160A  1   2
*       TERMINALS:   A   K
Done    1            2   Dtvs
Rleak   1            2   320meg
.MODEL  Dtvs         D   (IS=1.0e-5 RS=4.4192 N=1.5 IBV=1m BV=187.50 CJO=980p)
.ENDS

.SUBCKT 5.0SMDJ170A  1   2
*       TERMINALS:   A   K
Done    1            2   Dtvs
Rleak   1            2   340meg
.MODEL  Dtvs         D   (IS=1.0e-5 RS=5.3528 N=1.5 IBV=1m BV=199.00 CJO=880p)
.ENDS






























