**********
* Bourns Inc.,
* SPICE Models
* 5.0SMDJxxxCA Family
* 2019/11/13
**********
**********

.SUBCKT 5.0SMDJ5.0CA 1   2
*       TERMINALS:   T1  T2
Done    1            3   Dtvs
Dtwo    2            3   Dtvs
Rleak   1            2   0.013meg
.MODEL  Dtvs         D   (IS=1.0e-5 RS=0.0025 N=1.5 IBV=10m BV=6.7 CJO=15000p)
.ENDS

.SUBCKT 5.0SMDJ6.0CA 1   2
*       TERMINALS:   T1  T2
Done    1            3   Dtvs
Dtwo    2            3   Dtvs
Rleak   1            2   0.015meg
.MODEL  Dtvs         D   (IS=1.0e-5 RS=0.0031 N=1.5 IBV=10m BV=7.02 CJO=14000p)
.ENDS

.SUBCKT 5.0SMDJ6.5CA 1   2
*       TERMINALS:   T1  T2
Done    1            3   Dtvs
Dtwo    2            3   Dtvs
Rleak   1            2   0.026meg
.MODEL  Dtvs         D   (IS=1.0e-5 RS=0.0045 N=1.5 IBV=10m BV=7.60 CJO=13200p)
.ENDS

.SUBCKT 5.0SMDJ7.0CA 1   2
*       TERMINALS:   T1  T2
Done    1            3   Dtvs
Dtwo    2            3   Dtvs
Rleak   1            2   0.070meg
.MODEL  Dtvs         D   (IS=1.0e-5 RS=0.0065 N=1.5 IBV=10m BV=8.19 CJO=12200p)
.ENDS

.SUBCKT 5.0SMDJ7.5CA 1   2
*       TERMINALS:   T1  T2
Done    1            3   Dtvs
Dtwo    2            3   Dtvs
Rleak   1            2   0.150meg
.MODEL  Dtvs         D   (IS=1.0e-5 RS=0.0078 N=1.5 IBV=1m BV=8.77 CJO=11500p)
.ENDS

.SUBCKT 5.0SMDJ8.0CA 1   2
*       TERMINALS:   T1  T2
Done    1            3   Dtvs
Dtwo    2            3   Dtvs
Rleak   1            2   0.320meg
.MODEL  Dtvs         D   (IS=1.0e-5 RS=0.0093 N=1.5 IBV=1m BV=9.36 CJO=10200p)
.ENDS

.SUBCKT 5.0SMDJ8.5CA 1   2
*       TERMINALS:   T1  T2
Done    1            3   Dtvs
Dtwo    2            3   Dtvs
Rleak   1            2   0.850meg
.MODEL  Dtvs         D   (IS=1.0e-5 RS=0.0093 N=1.5 IBV=1m BV=9.92 CJO=9700p)
.ENDS

.SUBCKT 5.0SMDJ9.0CA 1   2
*       TERMINALS:   T1  T2
Done    1            3   Dtvs
Dtwo    2            3   Dtvs
Rleak   1            2   1.800meg
.MODEL  Dtvs         D   (IS=1.0e-5 RS=0.0112 N=1.5 IBV=1m BV=10.55 CJO=9200p)
.ENDS

.SUBCKT 5.0SMDJ10CA  1   2
*       TERMINALS:   T1  T2
Done    1            3   Dtvs
Dtwo    2            3   Dtvs
Rleak   1            2   4meg
.MODEL  Dtvs         D   (IS=1.0e-5 RS=0.0134 N=1.5 IBV=1m BV=11.70 CJO=8700p)
.ENDS

.SUBCKT 5.0SMDJ11CA  1   2
*       TERMINALS:   T1  T2
Done    1            3   Dtvs
Dtwo    2            3   Dtvs
Rleak   1            2   22meg
.MODEL  Dtvs         D   (IS=1.0e-5 RS=0.0163 N=1.5 IBV=1m BV=12.85 CJO=8200p)
.ENDS

.SUBCKT 5.0SMDJ12CA  1   2
*       TERMINALS:   T1  T2
Done    1            3   Dtvs
Dtwo    2            3   Dtvs
Rleak   1            2   24meg
.MODEL  Dtvs         D   (IS=1.0e-5 RS=0.0197 N=1.5 IBV=1m BV=14.00 CJO=7500p)
.ENDS

.SUBCKT 5.0SMDJ13CA  1   2
*       TERMINALS:   T1  T2
Done    1            3   Dtvs
Dtwo    2            3   Dtvs
Rleak   1            2   26meg
.MODEL  Dtvs         D   (IS=1.0e-5 RS=0.0216 N=1.5 IBV=1m BV=15.15 CJO=6900p)
.ENDS

.SUBCKT 5.0SMDJ14CA  1   2
*       TERMINALS:   T1  T2
Done    1            3   Dtvs
Dtwo    2            3   Dtvs
Rleak   1            2   28meg
.MODEL  Dtvs         D   (IS=1.0e-5 RS=0.0249 N=1.5 IBV=1m BV=16.40 CJO=6300p)
.ENDS

.SUBCKT 5.0SMDJ15CA  1   2
*       TERMINALS:   T1  T2
Done    1            3   Dtvs
Dtwo    2            3   Dtvs
Rleak   1            2   30meg
.MODEL  Dtvs         D   (IS=1.0e-5 RS=0.0316 N=1.5 IBV=1m BV=17.60 CJO=5900p)
.ENDS

.SUBCKT 5.0SMDJ16CA  1   2
*       TERMINALS:   T1  T2
Done    1            3   Dtvs
Dtwo    2            3   Dtvs
Rleak   1            2   32meg
.MODEL  Dtvs         D   (IS=1.0e-5 RS=0.0365 N=1.5 IBV=1m BV=18.75 CJO=5400p)
.ENDS

.SUBCKT 5.0SMDJ17CA  1   2
*       TERMINALS:   T1  T2
Done    1            3   Dtvs
Dtwo    2            3   Dtvs
Rleak   1            2   34meg
.MODEL  Dtvs         D   (IS=1.0e-5 RS=0.0402 N=1.5 IBV=1m BV=19.90 CJO=5000p)
.ENDS

.SUBCKT 5.0SMDJ18CA  1   2
*       TERMINALS:   T1  T2
Done    1            3   Dtvs
Dtwo    2            3   Dtvs
Rleak   1            2   36meg
.MODEL  Dtvs         D   (IS=1.0e-5 RS=0.0179 N=1.5 IBV=1m BV=21.05 CJO=4800p)
.ENDS

.SUBCKT 5.0SMDJ20CA  1   2
*       TERMINALS:   T1  T2
Done    1            3   Dtvs
Dtwo    2            3   Dtvs
Rleak   1            2   40meg
.MODEL  Dtvs         D   (IS=1.0e-5 RS=0.0227 N=1.5 IBV=1m BV=23.35 CJO=4500p)
.ENDS

.SUBCKT 5.0SMDJ22CA  1   2
*       TERMINALS:   T1  T2
Done    1            3   Dtvs
Dtwo    2            3   Dtvs
Rleak   1            2   44meg
.MODEL  Dtvs         D   (IS=1.0e-5 RS=0.0274 N=1.5 IBV=1m BV=25.65 CJO=4100p)
.ENDS

.SUBCKT 5.0SMDJ24CA  1   2
*       TERMINALS:   T1  T2
Done    1            3   Dtvs
Dtwo    2            3   Dtvs
Rleak   1            2   48meg
.MODEL  Dtvs         D   (IS=1.0e-5 RS=0.0316 N=1.5 IBV=1m BV=28.10 CJO=3800p)
.ENDS

.SUBCKT 5.0SMDJ26CA  1   2
*       TERMINALS:   T1  T2
Done    1            3   Dtvs
Dtwo    2            3   Dtvs
Rleak   1            2   52meg
.MODEL  Dtvs         D   (IS=1.0e-5 RS=0.0348 N=1.5 IBV=1m BV=30.40 CJO=3500p)
.ENDS

.SUBCKT 5.0SMDJ28CA  1   2
*       TERMINALS:   T1  T2
Done    1            3   Dtvs
Dtwo    2            3   Dtvs
Rleak   1            2   56meg
.MODEL  Dtvs         D   (IS=1.0e-5 RS=0.0421 N=1.5 IBV=1m BV=32.75 CJO=3250p)
.ENDS

.SUBCKT 5.0SMDJ30CA  1   2
*       TERMINALS:   T1  T2
Done    1            3   Dtvs
Dtwo    2            3   Dtvs
Rleak   1            2   60meg
.MODEL  Dtvs         D   (IS=1.0e-5 RS=0.0463 N=1.5 IBV=1m BV=35.05 CJO=3050p)
.ENDS

.SUBCKT 5.0SMDJ33CA  1   2
*       TERMINALS:   T1  T2
Done    1            3   Dtvs
Dtwo    2            3   Dtvs
Rleak   1            2   66meg
.MODEL  Dtvs         D   (IS=1.0e-5 RS=0.0509 N=1.5 IBV=1m BV=38.65 CJO=2800p)
.ENDS

.SUBCKT 5.0SMDJ36CA  1   2
*       TERMINALS:   T1  T2
Done    1            3   Dtvs
Dtwo    2            3   Dtvs
Rleak   1            2   72meg
.MODEL  Dtvs         D   (IS=1.0e-5 RS=0.0647 N=1.5 IBV=1m BV=42.10 CJO=2600p)
.ENDS

.SUBCKT 5.0SMDJ40CA  1   2
*       TERMINALS:   T1  T2
Done    1            3   Dtvs
Dtwo    2            3   Dtvs
Rleak   1            2   80meg
.MODEL  Dtvs         D   (IS=1.0e-5 RS=0.0783 N=1.5 IBV=1m BV=46.75 CJO=2350p)
.ENDS

.SUBCKT 5.0SMDJ43CA  1   2
*       TERMINALS:   T1  T2
Done    1            3   Dtvs
Dtwo    2            3   Dtvs
Rleak   1            2   86meg
.MODEL  Dtvs         D   (IS=1.0e-5 RS=0.0902 N=1.5 IBV=1m BV=50.30 CJO=2150p)
.ENDS

.SUBCKT 5.0SMDJ45CA  1   2
*       TERMINALS:   T1  T2
Done    1            3   Dtvs
Dtwo    2            3   Dtvs
Rleak   1            2   90meg
.MODEL  Dtvs         D   (IS=1.0e-5 RS=0.1092 N=1.5 IBV=1m BV=52.65 CJO=2000p)
.ENDS

.SUBCKT 5.0SMDJ48CA  1   2
*       TERMINALS:   T1  T2
Done    1            3   Dtvs
Dtwo    2            3   Dtvs
Rleak   1            2   96meg
.MODEL  Dtvs         D   (IS=1.0e-5 RS=0.1201 N=1.5 IBV=1m BV=56.10 CJO=1950p)
.ENDS

.SUBCKT 5.0SMDJ51CA  1   2
*       TERMINALS:   T1  T2
Done    1            3   Dtvs
Dtwo    2            3   Dtvs
Rleak   1            2   102meg
.MODEL  Dtvs         D   (IS=1.0e-5 RS=0.1321 N=1.5 IBV=1m BV=59.70 CJO=1850p)
.ENDS

.SUBCKT 5.0SMDJ54CA  1   2
*       TERMINALS:   T1  T2
Done    1            3   Dtvs
Dtwo    2            3   Dtvs
Rleak   1            2   108meg
.MODEL  Dtvs         D   (IS=1.0e-5 RS=0.1453 N=1.5 IBV=1m BV=63.15 CJO=1800p)
.ENDS

.SUBCKT 5.0SMDJ58CA  1   2
*       TERMINALS:   T1  T2
Done    1            3   Dtvs
Dtwo    2            3   Dtvs
Rleak   1            2   116meg
.MODEL  Dtvs         D   (IS=1.0e-5 RS=0.1758 N=1.5 IBV=1m BV=67.80 CJO=1700p)
.ENDS

.SUBCKT 5.0SMDJ60CA  1   2
*       TERMINALS:   T1  T2
Done    1            3   Dtvs
Dtwo    2            3   Dtvs
Rleak   1            2   120meg
.MODEL  Dtvs         D   (IS=1.0e-5 RS=0.1846 N=1.5 IBV=1m BV=70.20 CJO=1650p)
.ENDS

.SUBCKT 5.0SMDJ64CA  1   2
*       TERMINALS:   T1  T2
Done    1            3   Dtvs
Dtwo    2            3   Dtvs
Rleak   1            2   128meg
.MODEL  Dtvs         D   (IS=1.0e-5 RS=0.2128 N=1.5 IBV=1m BV=74.85 CJO=1550p)
.ENDS

.SUBCKT 5.0SMDJ70CA  1   2
*       TERMINALS:   T1  T2
Done    1            3   Dtvs
Dtwo    2            3   Dtvs
Rleak   1            2   140meg
.MODEL  Dtvs         D   (IS=1.0e-5 RS=0.2703 N=1.5 IBV=1m BV=81.90 CJO=1450p)
.ENDS

.SUBCKT 5.0SMDJ75CA  1   2
*       TERMINALS:   T1  T2
Done    1            3   Dtvs
Dtwo    2            3   Dtvs
Rleak   1            2   150meg
.MODEL  Dtvs         D   (IS=1.0e-5 RS=0.3115 N=1.5 IBV=1m BV=87.70 CJO=1350p)
.ENDS

.SUBCKT 5.0SMDJ78CA  1   2
*       TERMINALS:   T1  T2
Done    1            3   Dtvs
Dtwo    2            3   Dtvs
Rleak   1            2   156meg
.MODEL  Dtvs         D   (IS=1.0e-5 RS=0.3426 N=1.5 IBV=1m BV=91.25 CJO=1300p)
.ENDS

.SUBCKT 5.0SMDJ85CA  1   2
*       TERMINALS:   T1  T2
Done    1            3   Dtvs
Dtwo    2            3   Dtvs
Rleak   1            2   170meg
.MODEL  Dtvs         D   (IS=1.0e-5 RS=0.3958 N=1.5 IBV=1m BV=99.20 CJO=1150p)
.ENDS































