*
* Generic triode model: 10
* Copyright 2003--2008 by Ayumi Nakabayashi, All rights reserved.
* Version 3.10, Generated on Sat Mar  8 22:41:25 2008
*          Plate
*          | Grid
*          | | Cathode
*          | | |
.SUBCKT 10 A G K
BGG   GG   0 V=V(G,K)+-0.99999237
BM1   M1   0 V=(0.0096683582*(URAMP(V(A,K))+1e-10))**-0.12233483
BM2   M2   0 V=(0.92459336*(URAMP(V(GG)+URAMP(V(A,K))/7.7993226)+1e-10))**1.6223348
BP    P    0 V=0.00027480869*(URAMP(V(GG)+URAMP(V(A,K))/8.4354085)+1e-10)**1.5
BIK   IK   0 V=U(V(GG))*V(P)+(1-U(V(GG)))*0.00020223856*V(M1)*V(M2)
BIG   IG   0 V=0.00013740434*URAMP(V(G,K))**1.5*(URAMP(V(G,K))/(URAMP(V(A,K))+URAMP(V(G,K)))*1.2+0.4)
BIAK  A    K I=URAMP(V(IK,IG)-URAMP(V(IK,IG)-(0.00018769219*URAMP(V(A,K))**1.5)))+1e-10*V(A,K)
BIGK  G    K I=V(IG)
* CAPS
CGA   G    A 7p
CGK   G    K 4p
CAK   A    K 3p
.ENDS
*
* Generic triode model: 12A
* Copyright 2003--2008 by Ayumi Nakabayashi, All rights reserved.
* Version 3.10, Generated on Sat Mar  8 22:41:27 2008
*           Plate
*           | Grid
*           | | Cathode
*           | | |
.SUBCKT 12A A G K
BGG   GG   0 V=V(G,K)+-0.99999998
BM1   M1   0 V=(0.02099402*(URAMP(V(A,K))+1e-10))**-0.30518364
BM2   M2   0 V=(0.83094039*(URAMP(V(GG)+URAMP(V(A,K))/8.0527506)+1e-10))**1.8051836
BP    P    0 V=0.00060950916*(URAMP(V(GG)+URAMP(V(A,K))/9.6911291)+1e-10)**1.5
BIK   IK   0 V=U(V(GG))*V(P)+(1-U(V(GG)))*0.00037491826*V(M1)*V(M2)
BIG   IG   0 V=0.00030475458*URAMP(V(G,K))**1.5*(URAMP(V(G,K))/(URAMP(V(A,K))+URAMP(V(G,K)))*1.2+0.4)
BIAK  A    K I=URAMP(V(IK,IG)-URAMP(V(IK,IG)-(0.00040148822*URAMP(V(A,K))**1.5)))+1e-10*V(A,K)
BIGK  G    K I=V(IG)
* CAPS
CGA   G    A 8.5p
CGK   G    K 4p
CAK   A    K 2p
.ENDS
*
* Generic triode model: 12AT7
* Copyright 2003--2008 by Ayumi Nakabayashi, All rights reserved.
* Version 3.10, Generated on Sat Mar  8 22:41:07 2008
*             Plate
*             | Grid
*             | | Cathode
*             | | |
.SUBCKT 12AT7 A G K
BGG   GG   0 V=V(G,K)+0.67585931
BM1   M1   0 V=(0.015420581*(URAMP(V(A,K))+1e-10))**-1.768756
BM2   M2   0 V=(0.45889017*(URAMP(V(GG)+URAMP(V(A,K))/35.090106)+1e-10))**3.268756
BP    P    0 V=0.0031809222*(URAMP(V(GG)+URAMP(V(A,K))/76.46733)+1e-10)**1.5
BIK   IK   0 V=U(V(GG))*V(P)+(1-U(V(GG)))*0.0042575005*V(M1)*V(M2)
BIG   IG   0 V=0.0015904611*URAMP(V(G,K))**1.5*(URAMP(V(G,K))/(URAMP(V(A,K))+URAMP(V(G,K)))*1.2+0.4)
BIAK  A    K I=URAMP(V(IK,IG)-URAMP(V(IK,IG)-(0.0016530623*URAMP(V(A,K))**1.5)))+1e-10*V(A,K)
BIGK  G    K I=V(IG)
* CAPS
CGA   G    A 1.5p
CGK   G    K 2.2p
CAK   A    K 0.5p
.ENDS
*
* Generic triode model: 12AU7
* Copyright 2003--2008 by Ayumi Nakabayashi, All rights reserved.
* Version 3.10, Generated on Sat Mar  8 22:41:08 2008
*             Plate
*             | Grid
*             | | Cathode
*             | | |
.SUBCKT 12AU7 A G K
BGG   GG   0 V=V(G,K)+0.89005722
BM1   M1   0 V=(0.028826571*(URAMP(V(A,K))+1e-10))**-0.90897681
BM2   M2   0 V=(0.622671*(URAMP(V(GG)+URAMP(V(A,K))/13.089625)+1e-10))**2.4089768
BP    P    0 V=0.00087237591*(URAMP(V(GG)+URAMP(V(A,K))/21.021735)+1e-10)**1.5
BIK   IK   0 V=U(V(GG))*V(P)+(1-U(V(GG)))*0.00055330711*V(M1)*V(M2)
BIG   IG   0 V=0.00043618795*URAMP(V(G,K))**1.5*(URAMP(V(G,K))/(URAMP(V(A,K))+URAMP(V(G,K)))*1.2+0.4)
BIAK  A    K I=URAMP(V(IK,IG)-URAMP(V(IK,IG)-(0.00049917061*URAMP(V(A,K))**1.5)))+1e-10*V(A,K)
BIGK  G    K I=V(IG)
* CAPS
CGA   G    A 1.5p
CGK   G    K 1.6p
CAK   A    K 0.4p
.ENDS
*
* Generic triode model: 12AX7
* Copyright 2003--2008 by Ayumi Nakabayashi, All rights reserved.
* Version 3.10, Generated on Sat Mar  8 22:41:09 2008
*             Plate
*             | Grid
*             | | Cathode
*             | | |
.SUBCKT 12AX7 A G K
BGG   GG   0 V=V(G,K)+0.59836683
BM1   M1   0 V=(0.0017172334*(URAMP(V(A,K))+1e-10))**-0.2685074
BM2   M2   0 V=(0.84817287*(URAMP(V(GG)+URAMP(V(A,K))/88.413802)+1e-10))**1.7685074
BP    P    0 V=0.001130216*(URAMP(V(GG)+URAMP(V(A,K))/104.24031)+1e-10)**1.5
BIK   IK   0 V=U(V(GG))*V(P)+(1-U(V(GG)))*0.00071211506*V(M1)*V(M2)
BIG   IG   0 V=0.000565108*URAMP(V(G,K))**1.5*(URAMP(V(G,K))/(URAMP(V(A,K))+URAMP(V(G,K)))*1.2+0.4)
BIAK  A    K I=URAMP(V(IK,IG)-URAMP(V(IK,IG)-(0.00058141055*URAMP(V(A,K))**1.5)))+1e-10*V(A,K)
BIGK  G    K I=V(IG)
* CAPS
CGA   G    A 1.7p
CGK   G    K 1.6p
CAK   A    K 0.5p
.ENDS
*
* Generic triode model: 12AY7
* Copyright 2003--2008 by Ayumi Nakabayashi, All rights reserved.
* Version 3.10, Generated on Sat Mar  8 22:41:10 2008
*             Plate
*             | Grid
*             | | Cathode
*             | | |
.SUBCKT 12AY7 A G K
BGG   GG   0 V=V(G,K)+0.71171435
BM1   M1   0 V=(0.0094119714*(URAMP(V(A,K))+1e-10))**-0.68363668
BM2   M2   0 V=(0.68692746*(URAMP(V(GG)+URAMP(V(A,K))/33.263227)+1e-10))**2.1836367
BP    P    0 V=0.00092634255*(URAMP(V(GG)+URAMP(V(A,K))/48.423202)+1e-10)**1.5
BIK   IK   0 V=U(V(GG))*V(P)+(1-U(V(GG)))*0.00054133951*V(M1)*V(M2)
BIG   IG   0 V=0.00046317128*URAMP(V(G,K))**1.5*(URAMP(V(G,K))/(URAMP(V(A,K))+URAMP(V(G,K)))*1.2+0.4)
BIAK  A    K I=URAMP(V(IK,IG)-URAMP(V(IK,IG)-(0.00049201413*URAMP(V(A,K))**1.5)))+1e-10*V(A,K)
BIGK  G    K I=V(IG)
* CAPS
CGA   G    A 1.3p
CGK   G    K 1.3p
CAK   A    K 0.6p
.ENDS
*
* Generic triode model: 12B4A
* Copyright 2003--2008 by Ayumi Nakabayashi, All rights reserved.
* Version 3.10, Generated on Sat Mar  8 22:41:12 2008
*             Plate
*             | Grid
*             | | Cathode
*             | | |
.SUBCKT 12B4A A G K
BGG   GG   0 V=V(G,K)+1
BM1   M1   0 V=(0.087065329*(URAMP(V(A,K))+1e-10))**-1.2036947
BM2   M2   0 V=(0.55479636*(URAMP(V(GG)+URAMP(V(A,K))/5.1134435)+1e-10))**2.7036947
BP    P    0 V=0.0047680512*(URAMP(V(GG)+URAMP(V(A,K))/9.2167935)+1e-10)**1.5
BIK   IK   0 V=U(V(GG))*V(P)+(1-U(V(GG)))*0.0036584566*V(M1)*V(M2)
BIG   IG   0 V=0.0023840256*URAMP(V(G,K))**1.5*(URAMP(V(G,K))/(URAMP(V(A,K))+URAMP(V(G,K)))*1.2+0.4)
BIAK  A    K I=URAMP(V(IK,IG)-URAMP(V(IK,IG)-(0.0031806909*URAMP(V(A,K))**1.5)))+1e-10*V(A,K)
BIGK  G    K I=V(IG)
* CAPS
CGA   G    A 4.8p
CGK   G    K 5p
CAK   A    K 1.5p
.ENDS
*
* Generic triode model: 12BH7
* Copyright 2003--2008 by Ayumi Nakabayashi, All rights reserved.
* Version 3.10, Generated on Sat Mar  8 22:41:14 2008
*             Plate
*             | Grid
*             | | Cathode
*             | | |
.SUBCKT 12BH7 A G K
BGG   GG   0 V=V(G,K)+0.99999999
BM1   M1   0 V=(0.044635144*(URAMP(V(A,K))+1e-10))**-1.6555735
BM2   M2   0 V=(0.47534942*(URAMP(V(GG)+URAMP(V(A,K))/11.754204)+1e-10))**3.1555735
BP    P    0 V=0.0021126435*(URAMP(V(GG)+URAMP(V(A,K))/24.727503)+1e-10)**1.5
BIK   IK   0 V=U(V(GG))*V(P)+(1-U(V(GG)))*0.0024875937*V(M1)*V(M2)
BIG   IG   0 V=0.00112*URAMP(V(G,K))**1.5*(URAMP(V(G,K))/(URAMP(V(A,K))+URAMP(V(G,K)))*1.2+0.4)
BIAK  A    K I=URAMP(V(IK,IG)-URAMP(V(IK,IG)-(0.00112*URAMP(V(A,K))**1.5)))+1e-10*V(A,K)
BIGK  G    K I=V(IG)
* CAPS
CGA   G    A 2.6p
CGK   G    K 3.2p
CAK   A    K 0.5p
.ENDS
*
* Generic triode model: 12BY7AT
* Copyright 2003--2008 by Ayumi Nakabayashi, All rights reserved.
* Version 3.10, Generated on Sat Mar  8 22:41:15 2008
*               Plate
*               | Grid
*               | | Cathode
*               | | |
.SUBCKT 12BY7AT A G K
BGG   GG   0 V=V(G,K)+-0.02185341
BM1   M1   0 V=(0.014593712*(URAMP(V(A,K))+1e-10))**-0.7027291
BM2   M2   0 V=(0.68097344*(URAMP(V(GG)+URAMP(V(A,K))/21.860549)+1e-10))**2.2027291
BP    P    0 V=0.0061475247*(URAMP(V(GG)+URAMP(V(A,K))/32.101912)+1e-10)**1.5
BIK   IK   0 V=U(V(GG))*V(P)+(1-U(V(GG)))*0.0036081888*V(M1)*V(M2)
BIG   IG   0 V=0.0030737623*URAMP(V(G,K))**1.5*(URAMP(V(G,K))/(URAMP(V(A,K))+URAMP(V(G,K)))*1.2+0.4)
BIAK  A    K I=URAMP(V(IK,IG)-URAMP(V(IK,IG)-(0.0033632383*URAMP(V(A,K))**1.5)))+1e-10*V(A,K)
BIGK  G    K I=V(IG)
* CAPS
CGA   G    A 4.1p
CGK   G    K 6.1p
CAK   A    K 3.4p
.ENDS
*
* Generic triode model: 12GN7AT
* Copyright 2003--2008 by Ayumi Nakabayashi, All rights reserved.
* Version 3.10, Generated on Sat Mar  8 22:41:16 2008
*               Plate
*               | Grid
*               | | Cathode
*               | | |
.SUBCKT 12GN7AT A G K
BGG   GG   0 V=V(G,K)+-0.52499611
BM1   M1   0 V=(0.0070794303*(URAMP(V(A,K))+1e-10))**-0.51284817
BM2   M2   0 V=(0.74521269*(URAMP(V(GG)+URAMP(V(A,K))/35.989804)+1e-10))**2.0128482
BP    P    0 V=0.032317671*(URAMP(V(GG)+URAMP(V(A,K))/48.294674)+1e-10)**1.5
BIK   IK   0 V=U(V(GG))*V(P)+(1-U(V(GG)))*0.018638041*V(M1)*V(M2)
BIG   IG   0 V=0.016158835*URAMP(V(G,K))**1.5*(URAMP(V(G,K))/(URAMP(V(A,K))+URAMP(V(G,K)))*1.2+0.4)
BIAK  A    K I=URAMP(V(IK,IG)-URAMP(V(IK,IG)-(0.017167779*URAMP(V(A,K))**1.5)))+1e-10*V(A,K)
BIGK  G    K I=V(IG)
* CAPS
CGA   G    A 7.1p
CGK   G    K 10.4p
CAK   A    K 3.9p
.ENDS
*
* Generic triode model: 14AF7
* Copyright 2003--2008 by Ayumi Nakabayashi, All rights reserved.
* Version 3.10, Generated on Sat Mar  8 22:46:24 2008
*             Plate
*             | Grid
*             | | Cathode
*             | | |
.SUBCKT 14AF7 A G K
BGG   GG   0 V=V(G,K)+0.77793251
BM1   M1   0 V=(0.0061210583*(URAMP(V(A,K))+1e-10))**-0.15593519
BM2   M2   0 V=(0.90583256*(URAMP(V(GG)+URAMP(V(A,K))/15.384177)+1e-10))**1.6559352
BP    P    0 V=0.0006681181*(URAMP(V(GG)+URAMP(V(A,K))/16.983467)+1e-10)**1.5
BIK   IK   0 V=U(V(GG))*V(P)+(1-U(V(GG)))*0.00046940316*V(M1)*V(M2)
BIG   IG   0 V=0.00033405905*URAMP(V(G,K))**1.5*(URAMP(V(G,K))/(URAMP(V(A,K))+URAMP(V(G,K)))*1.2+0.4)
BIAK  A    K I=URAMP(V(IK,IG)-URAMP(V(IK,IG)-(0.00039392832*URAMP(V(A,K))**1.5)))+1e-10*V(A,K)
BIGK  G    K I=V(IG)
* CAPS
CGA   G    A 2.3p
CGK   G    K 2.2p
CAK   A    K 1.6p
.ENDS
*
* Generic triode model: 1619T
* Copyright 2003--2008 by Ayumi Nakabayashi, All rights reserved.
* Version 3.10, Generated on Sat Mar  8 22:42:00 2008
*             Plate
*             | Grid
*             | | Cathode
*             | | |
.SUBCKT 1619T A G K
BGG   GG   0 V=V(G,K)+-0.99999999
BM1   M1   0 V=(0.021726327*(URAMP(V(A,K))+1e-10))**-0.34437983
BM2   M2   0 V=(0.8132815*(URAMP(V(GG)+URAMP(V(A,K))/8.5941123)+1e-10))**1.8443798
BP    P    0 V=0.00095297512*(URAMP(V(GG)+URAMP(V(A,K))/10.567205)+1e-10)**1.5
BIK   IK   0 V=U(V(GG))*V(P)+(1-U(V(GG)))*0.00057412229*V(M1)*V(M2)
BIG   IG   0 V=0.00047648756*URAMP(V(G,K))**1.5*(URAMP(V(G,K))/(URAMP(V(A,K))+URAMP(V(G,K)))*1.2+0.4)
BIAK  A    K I=URAMP(V(IK,IG)-URAMP(V(IK,IG)-(0.0006149126*URAMP(V(A,K))**1.5)))+1e-10*V(A,K)
BIGK  G    K I=V(IG)
* CAPS
CGA   G    A 4.4p
CGK   G    K 6.1p
CAK   A    K 12.2p
.ENDS
*
* Generic triode model: 20P1T
* Copyright 2003--2008 by Ayumi Nakabayashi, All rights reserved.
* Version 3.10, Generated on Sat Mar  8 22:41:18 2008
*             Plate
*             | Grid
*             | | Cathode
*             | | |
.SUBCKT 20P1T A G K
BGG   GG   0 V=V(G,K)+0.99999997
BM1   M1   0 V=(0.15450603*(URAMP(V(A,K))+1e-10))**-1.2979847
BM2   M2   0 V=(0.53610015*(URAMP(V(GG)+URAMP(V(A,K))/3.0024709)+1e-10))**2.7979847
BP    P    0 V=0.002051274*(URAMP(V(GG)+URAMP(V(A,K))/5.6005784)+1e-10)**1.5
BIK   IK   0 V=U(V(GG))*V(P)+(1-U(V(GG)))*0.0017001298*V(M1)*V(M2)
BIG   IG   0 V=0.001025637*URAMP(V(G,K))**1.5*(URAMP(V(G,K))/(URAMP(V(A,K))+URAMP(V(G,K)))*1.2+0.4)
BIAK  A    K I=URAMP(V(IK,IG)-URAMP(V(IK,IG)-(0.0015988677*URAMP(V(A,K))**1.5)))+1e-10*V(A,K)
BIGK  G    K I=V(IG)
* CAPS
CGA   G    A 9.5p
CGK   G    K 13.5p
CAK   A    K 10.5p
.ENDS
*
* Generic triode model: 211
* Copyright 2003--2008 by Ayumi Nakabayashi, All rights reserved.
* Version 3.10, Generated on Sat Mar  8 22:41:51 2008
*           Plate
*           | Grid
*           | | Cathode
*           | | |
.SUBCKT 211 A G K
BGG   GG   0 V=V(G,K)+1
BM1   M1   0 V=(0.0021297199*(URAMP(V(A,K))+1e-10))**-0.038461562
BM2   M2   0 V=(0.97499998*(URAMP(V(GG)+URAMP(V(A,K))/11.73864)+1e-10))**1.5384616
BP    P    0 V=0.00045306372*(URAMP(V(GG)+URAMP(V(A,K))/12.039631)+1e-10)**1.5
BIK   IK   0 V=U(V(GG))*V(P)+(1-U(V(GG)))*0.00039351788*V(M1)*V(M2)
BIG   IG   0 V=0.00011014965*URAMP(V(G,K))**1.5*(URAMP(V(G,K))/(URAMP(V(A,K))+URAMP(V(G,K)))*1.2+0.4)
BIAK  A    K I=URAMP(V(IK,IG)-URAMP(V(IK,IG)-(0.00041468102*URAMP(V(A,K))**1.5)))+1e-10*V(A,K)
BIGK  G    K I=V(IG)
* CAPS
CGA   G    A 14p
CGK   G    K 5.4p
CAK   A    K 4.8p
.ENDS
*
* Generic triode model: 25E5T
* Copyright 2003--2008 by Ayumi Nakabayashi, All rights reserved.
* Version 3.10, Generated on Sat Mar  8 22:41:19 2008
*             Plate
*             | Grid
*             | | Cathode
*             | | |
.SUBCKT 25E5T A G K
BGG   GG   0 V=V(G,K)+1
BM1   M1   0 V=(0.081561717*(URAMP(V(A,K))+1e-10))**-0.79980677
BM2   M2   0 V=(0.65222871*(URAMP(V(GG)+URAMP(V(A,K))/4.2639035)+1e-10))**2.2998068
BP    P    0 V=0.0042185857*(URAMP(V(GG)+URAMP(V(A,K))/6.5374361)+1e-10)**1.5
BIK   IK   0 V=U(V(GG))*V(P)+(1-U(V(GG)))*0.0025511424*V(M1)*V(M2)
BIG   IG   0 V=0.0021092928*URAMP(V(G,K))**1.5*(URAMP(V(G,K))/(URAMP(V(A,K))+URAMP(V(G,K)))*1.2+0.4)
BIAK  A    K I=URAMP(V(IK,IG)-URAMP(V(IK,IG)-(0.00311336*URAMP(V(A,K))**1.5)))+1e-10*V(A,K)
BIGK  G    K I=V(IG)
* CAPS
CGA   G    A 7.7p
CGK   G    K 9.9p
CAK   A    K 7p
.ENDS
*
* Generic triode model: 27
* Copyright 2003--2008 by Ayumi Nakabayashi, All rights reserved.
* Version 3.10, Generated on Sat Mar  8 22:41:29 2008
*          Plate
*          | Grid
*          | | Cathode
*          | | |
.SUBCKT 27 A G K
BGG   GG   0 V=V(G,K)+0.99999994
BM1   M1   0 V=(0.041269212*(URAMP(V(A,K))+1e-10))**-0.69845105
BM2   M2   0 V=(0.68229856*(URAMP(V(GG)+URAMP(V(A,K))/7.6982676)+1e-10))**2.1984511
BP    P    0 V=0.00036339312*(URAMP(V(GG)+URAMP(V(A,K))/11.282843)+1e-10)**1.5
BIK   IK   0 V=U(V(GG))*V(P)+(1-U(V(GG)))*0.00021306994*V(M1)*V(M2)
BIG   IG   0 V=0.00018169656*URAMP(V(G,K))**1.5*(URAMP(V(G,K))/(URAMP(V(A,K))+URAMP(V(G,K)))*1.2+0.4)
BIAK  A    K I=URAMP(V(IK,IG)-URAMP(V(IK,IG)-(0.00023106309*URAMP(V(A,K))**1.5)))+1e-10*V(A,K)
BIGK  G    K I=V(IG)
* CAPS
CGA   G    A 3.3p
CGK   G    K 3.1p
CAK   A    K 2.3p
.ENDS
*
* Generic triode model: 2A3
* Copyright 2003--2008 by Ayumi Nakabayashi, All rights reserved.
* Version 3.10, Generated on Sat Mar  8 22:38:56 2008
*           Plate
*           | Grid
*           | | Cathode
*           | | |
.SUBCKT 2A3 A G K
BGG   GG   0 V=V(G,K)+-0.47258991
BM1   M1   0 V=(0.056835059*(URAMP(V(A,K))+1e-10))**-0.4044593
BM2   M2   0 V=(0.78762513*(URAMP(V(GG)+URAMP(V(A,K))/3.7366878)+1e-10))**1.9044593
BP    P    0 V=0.0012053852*(URAMP(V(GG)+URAMP(V(A,K))/4.7442465)+1e-10)**1.5
BIK   IK   0 V=U(V(GG))*V(P)+(1-U(V(GG)))*0.000709416*V(M1)*V(M2)
BIG   IG   0 V=0.00060269261*URAMP(V(G,K))**1.5*(URAMP(V(G,K))/(URAMP(V(A,K))+URAMP(V(G,K)))*1.2+0.4)
BIAK  A    K I=URAMP(V(IK,IG)-URAMP(V(IK,IG)-(0.0010032299*URAMP(V(A,K))**1.5)))+1e-10*V(A,K)
BIGK  G    K I=V(IG)
* CAPS
CGA   G    A 16.5p
CGK   G    K 7.5p
CAK   A    K 5.5p
.ENDS
*
* Generic triode model: 300B
* Copyright 2003--2008 by Ayumi Nakabayashi, All rights reserved.
* Version 3.10, Generated on Sat Mar  8 22:41:52 2008
*            Plate
*            | Grid
*            | | Cathode
*            | | |
.SUBCKT 300B A G K
BGG   GG   0 V=V(G,K)+0.99996017
BM1   M1   0 V=(0.038949013*(URAMP(V(A,K))+1e-10))**-0.25159159
BM2   M2   0 V=(0.85636401*(URAMP(V(GG)+URAMP(V(A,K))/3.6877954)+1e-10))**1.7515916
BP    P    0 V=0.0011156138*(URAMP(V(GG)+URAMP(V(A,K))/4.3063409)+1e-10)**1.5
BIK   IK   0 V=U(V(GG))*V(P)+(1-U(V(GG)))*0.00071191966*V(M1)*V(M2)
BIG   IG   0 V=0.00055780691*URAMP(V(G,K))**1.5*(URAMP(V(G,K))/(URAMP(V(A,K))+URAMP(V(G,K)))*1.2+0.4)
BIAK  A    K I=URAMP(V(IK,IG)-URAMP(V(IK,IG)-(0.00096815606*URAMP(V(A,K))**1.5)))+1e-10*V(A,K)
BIGK  G    K I=V(IG)
* CAPS
CGA   G    A 15p
CGK   G    K 8.5p
CAK   A    K 4.1p
.ENDS
*
* Generic triode model: 31LZ6T
* Copyright 2003--2008 by Ayumi Nakabayashi, All rights reserved.
* Version 3.10, Generated on Sat Mar  8 22:41:20 2008
*              Plate
*              | Grid
*              | | Cathode
*              | | |
.SUBCKT 31LZ6T A G K
BGG   GG   0 V=V(G,K)+-0.11976616
BM1   M1   0 V=(0.21025804*(URAMP(V(A,K))+1e-10))**-1.445676
BM2   M2   0 V=(0.50922098*(URAMP(V(GG)+URAMP(V(A,K))/2.3341748)+1e-10))**2.945676
BP    P    0 V=0.0061264796*(URAMP(V(GG)+URAMP(V(A,K))/4.5838151)+1e-10)**1.5
BIK   IK   0 V=U(V(GG))*V(P)+(1-U(V(GG)))*0.0058083241*V(M1)*V(M2)
BIG   IG   0 V=0.0030632398*URAMP(V(G,K))**1.5*(URAMP(V(G,K))/(URAMP(V(A,K))+URAMP(V(G,K)))*1.2+0.4)
BIAK  A    K I=URAMP(V(IK,IG)-URAMP(V(IK,IG)-(0.0051737191*URAMP(V(A,K))**1.5)))+1e-10*V(A,K)
BIGK  G    K I=V(IG)
* CAPS
CGA   G    A 9.2p
CGK   G    K 12.9p
CAK   A    K 10.4p
.ENDS
*
* Generic triode model: 350BT
* Copyright 2003--2008 by Ayumi Nakabayashi, All rights reserved.
* Version 3.10, Generated on Sat Mar  8 22:41:53 2008
*             Plate
*             | Grid
*             | | Cathode
*             | | |
.SUBCKT 350BT A G K
BGG   GG   0 V=V(G,K)+0.99999998
BM1   M1   0 V=(0.060793226*(URAMP(V(A,K))+1e-10))**-0.90421858
BM2   M2   0 V=(0.62390334*(URAMP(V(GG)+URAMP(V(A,K))/6.1864896)+1e-10))**2.4042186
BP    P    0 V=0.0019265247*(URAMP(V(GG)+URAMP(V(A,K))/9.9157821)+1e-10)**1.5
BIK   IK   0 V=U(V(GG))*V(P)+(1-U(V(GG)))*0.0012190211*V(M1)*V(M2)
BIG   IG   0 V=0.00096326237*URAMP(V(G,K))**1.5*(URAMP(V(G,K))/(URAMP(V(A,K))+URAMP(V(G,K)))*1.2+0.4)
BIAK  A    K I=URAMP(V(IK,IG)-URAMP(V(IK,IG)-(0.0012619241*URAMP(V(A,K))**1.5)))+1e-10*V(A,K)
BIGK  G    K I=V(IG)
* CAPS
CGA   G    A 6.7p
CGK   G    K 9.3p
CAK   A    K 7.5p
.ENDS
*
* Generic triode model: 354V
* Copyright 2003--2008 by Ayumi Nakabayashi, All rights reserved.
* Version 3.10, Generated on Sat Mar  8 22:41:54 2008
*            Plate
*            | Grid
*            | | Cathode
*            | | |
.SUBCKT 354V A G K
BGG   GG   0 V=V(G,K)+0.65601816
BM1   M1   0 V=(0.006476558*(URAMP(V(A,K))+1e-10))**-0.39630014
BM2   M2   0 V=(0.79101402*(URAMP(V(GG)+URAMP(V(A,K))/32.268063)+1e-10))**1.8963001
BP    P    0 V=0.0016633526*(URAMP(V(GG)+URAMP(V(A,K))/40.793288)+1e-10)**1.5
BIK   IK   0 V=U(V(GG))*V(P)+(1-U(V(GG)))*0.00098151348*V(M1)*V(M2)
BIG   IG   0 V=0.00083167629*URAMP(V(G,K))**1.5*(URAMP(V(G,K))/(URAMP(V(A,K))+URAMP(V(G,K)))*1.2+0.4)
BIAK  A    K I=URAMP(V(IK,IG)-URAMP(V(IK,IG)-(0.00089321233*URAMP(V(A,K))**1.5)))+1e-10*V(A,K)
BIGK  G    K I=V(IG)
* CAPS
CGA   G    A 2p
CGK   G    K 2p
CAK   A    K 2p
.ENDS
*
* Generic triode model: 35C5T
* Copyright 2003--2008 by Ayumi Nakabayashi, All rights reserved.
* Version 3.10, Generated on Sat Mar  8 22:41:22 2008
*             Plate
*             | Grid
*             | | Cathode
*             | | |
.SUBCKT 35C5T A G K
BGG   GG   0 V=V(G,K)+0.99999998
BM1   M1   0 V=(0.12544688*(URAMP(V(A,K))+1e-10))**-1.6161868
BM2   M2   0 V=(0.48135753*(URAMP(V(GG)+URAMP(V(A,K))/4.1343593)+1e-10))**3.1161868
BP    P    0 V=0.0021455369*(URAMP(V(GG)+URAMP(V(A,K))/8.5889574)+1e-10)**1.5
BIK   IK   0 V=U(V(GG))*V(P)+(1-U(V(GG)))*0.0024204769*V(M1)*V(M2)
BIG   IG   0 V=0.0010727685*URAMP(V(G,K))**1.5*(URAMP(V(G,K))/(URAMP(V(A,K))+URAMP(V(G,K)))*1.2+0.4)
BIAK  A    K I=URAMP(V(IK,IG)-URAMP(V(IK,IG)-(0.0014581748*URAMP(V(A,K))**1.5)))+1e-10*V(A,K)
BIGK  G    K I=V(IG)
* CAPS
CGA   G    A 5.2p
CGK   G    K 6.9p
CAK   A    K 8.4p
.ENDS
*
* Generic triode model: 3A167M
* Copyright 2003--2008 by Ayumi Nakabayashi, All rights reserved.
* Version 3.10, Generated on Sat Mar  8 22:38:57 2008
*              Plate
*              | Grid
*              | | Cathode
*              | | |
.SUBCKT 3A167M A G K
BGG   GG   0 V=V(G,K)+0.41219892
BM1   M1   0 V=(0.0067454169*(URAMP(V(A,K))+1e-10))**-0.5944305
BM2   M2   0 V=(0.71618514*(URAMP(V(GG)+URAMP(V(A,K))/42.075214)+1e-10))**2.0944305
BP    P    0 V=0.034181438*(URAMP(V(GG)+URAMP(V(A,K))/58.749074)+1e-10)**1.5
BIK   IK   0 V=U(V(GG))*V(P)+(1-U(V(GG)))*0.01971674*V(M1)*V(M2)
BIG   IG   0 V=0.017090719*URAMP(V(G,K))**1.5*(URAMP(V(G,K))/(URAMP(V(A,K))+URAMP(V(G,K)))*1.2+0.4)
BIAK  A    K I=URAMP(V(IK,IG)-URAMP(V(IK,IG)-(0.017967154*URAMP(V(A,K))**1.5)))+1e-10*V(A,K)
BIGK  G    K I=V(IG)
* CAPS
CGA   G    A 4p
CGK   G    K 11p
CAK   A    K 2.5p
.ENDS
*
* Generic triode model: 3C33
* Copyright 2003--2008 by Ayumi Nakabayashi, All rights reserved.
* Version 3.10, Generated on Sat Mar  8 22:38:58 2008
*            Plate
*            | Grid
*            | | Cathode
*            | | |
.SUBCKT 3C33 A G K
BGG   GG   0 V=V(G,K)+1
BM1   M1   0 V=(0.045418916*(URAMP(V(A,K))+1e-10))**-0.95262383
BM2   M2   0 V=(0.61158991*(URAMP(V(GG)+URAMP(V(A,K))/8.5517252)+1e-10))**2.4526238
BP    P    0 V=0.0048487914*(URAMP(V(GG)+URAMP(V(A,K))/13.982777)+1e-10)**1.5
BIK   IK   0 V=U(V(GG))*V(P)+(1-U(V(GG)))*0.0031463341*V(M1)*V(M2)
BIG   IG   0 V=0.0024243957*URAMP(V(G,K))**1.5*(URAMP(V(G,K))/(URAMP(V(A,K))+URAMP(V(G,K)))*1.2+0.4)
BIAK  A    K I=URAMP(V(IK,IG)-URAMP(V(IK,IG)-(0.0029537409*URAMP(V(A,K))**1.5)))+1e-10*V(A,K)
BIGK  G    K I=V(IG)
* CAPS
CGA   G    A 5p
CGK   G    K 8.5p
CAK   A    K 4p
.ENDS
*
* Generic triode model: 41MXP
* Copyright 2003--2008 by Ayumi Nakabayashi, All rights reserved.
* Version 3.10, Generated on Sat Mar  8 22:41:30 2008
*             Plate
*             | Grid
*             | | Cathode
*             | | |
.SUBCKT 41MXP A G K
BGG   GG   0 V=V(G,K)+0.99999047
BM1   M1   0 V=(0.24250237*(URAMP(V(A,K))+1e-10))**-4.0569457
BM2   M2   0 V=(0.26993246*(URAMP(V(GG)+URAMP(V(A,K))/3.0105584)+1e-10))**5.5569457
BP    P    0 V=0.0015885113*(URAMP(V(GG)+URAMP(V(A,K))/11.153006)+1e-10)**1.5
BIK   IK   0 V=U(V(GG))*V(P)+(1-U(V(GG)))*0.089955716*V(M1)*V(M2)
BIG   IG   0 V=0.00079425566*URAMP(V(G,K))**1.5*(URAMP(V(G,K))/(URAMP(V(A,K))+URAMP(V(G,K)))*1.2+0.4)
BIAK  A    K I=URAMP(V(IK,IG)-URAMP(V(IK,IG)-(0.0010126188*URAMP(V(A,K))**1.5)))+1e-10*V(A,K)
BIGK  G    K I=V(IG)
* CAPS
CGA   G    A 4p
CGK   G    K 4p
CAK   A    K 4p
.ENDS
*
* Generic triode model: 45
* Copyright 2003--2008 by Ayumi Nakabayashi, All rights reserved.
* Version 3.10, Generated on Sat Mar  8 22:41:31 2008
*          Plate
*          | Grid
*          | | Cathode
*          | | |
.SUBCKT 45 A G K
BGG   GG   0 V=V(G,K)+-0.36938318
BM1   M1   0 V=(0.072484305*(URAMP(V(A,K))+1e-10))**-0.45086063
BM2   M2   0 V=(0.76889142*(URAMP(V(GG)+URAMP(V(A,K))/3.1883948)+1e-10))**1.9508606
BP    P    0 V=0.00046886056*(URAMP(V(GG)+URAMP(V(A,K))/4.1467426)+1e-10)**1.5
BIK   IK   0 V=U(V(GG))*V(P)+(1-U(V(GG)))*0.00027269199*V(M1)*V(M2)
BIG   IG   0 V=0.00023443028*URAMP(V(G,K))**1.5*(URAMP(V(G,K))/(URAMP(V(A,K))+URAMP(V(G,K)))*1.2+0.4)
BIAK  A    K I=URAMP(V(IK,IG)-URAMP(V(IK,IG)-(0.00041387828*URAMP(V(A,K))**1.5)))+1e-10*V(A,K)
BIGK  G    K I=V(IG)
* CAPS
CGA   G    A 7p
CGK   G    K 4p
CAK   A    K 3p
.ENDS
*
* Generic triode model: 46
* Copyright 2003--2008 by Ayumi Nakabayashi, All rights reserved.
* Version 3.10, Generated on Sat Mar  8 22:41:32 2008
*          Plate
*          | Grid
*          | | Cathode
*          | | |
.SUBCKT 46 A G K
BGG   GG   0 V=V(G,K)+-0.6332578
BM1   M1   0 V=(0.012087887*(URAMP(V(A,K))+1e-10))**-1.4892322
BM2   M2   0 V=(0.50180111*(URAMP(V(GG)+URAMP(V(A,K))/41.214721)+1e-10))**2.9892322
BP    P    0 V=0.00056616214*(URAMP(V(GG)+URAMP(V(A,K))/82.13358)+1e-10)**1.5
BIK   IK   0 V=U(V(GG))*V(P)+(1-U(V(GG)))*0.0005601202*V(M1)*V(M2)
BIG   IG   0 V=0.00016122035*URAMP(V(G,K))**1.5*(URAMP(V(G,K))/(URAMP(V(A,K))+URAMP(V(G,K)))*1.2+0.4)
BIAK  A    K I=URAMP(V(IK,IG)-URAMP(V(IK,IG)-(0.00033941125*URAMP(V(A,K))**1.5)))+1e-10*V(A,K)
BIGK  G    K I=V(IG)
* CAPS
CGA   G    A 4p
CGK   G    K 4p
CAK   A    K 4p
.ENDS
*
* Generic triode model: 50
* Copyright 2003--2008 by Ayumi Nakabayashi, All rights reserved.
* Version 3.10, Generated on Sat Mar  8 22:41:33 2008
*          Plate
*          | Grid
*          | | Cathode
*          | | |
.SUBCKT 50 A G K
BGG   GG   0 V=V(G,K)+1
BM1   M1   0 V=(0.053592842*(URAMP(V(A,K))+1e-10))**-0.32643301
BM2   M2   0 V=(0.82127294*(URAMP(V(GG)+URAMP(V(A,K))/3.3349055)+1e-10))**1.826433
BP    P    0 V=0.00024452775*(URAMP(V(GG)+URAMP(V(A,K))/4.0606543)+1e-10)**1.5
BIK   IK   0 V=U(V(GG))*V(P)+(1-U(V(GG)))*0.0001486389*V(M1)*V(M2)
BIG   IG   0 V=0.00012226387*URAMP(V(G,K))**1.5*(URAMP(V(G,K))/(URAMP(V(A,K))+URAMP(V(G,K)))*1.2+0.4)
BIAK  A    K I=URAMP(V(IK,IG)-URAMP(V(IK,IG)-(0.00021794382*URAMP(V(A,K))**1.5)))+1e-10*V(A,K)
BIGK  G    K I=V(IG)
* CAPS
CGA   G    A 4p
CGK   G    K 4p
CAK   A    K 4p
.ENDS
*
* Generic triode model: 50HB26T
* Copyright 2003--2008 by Ayumi Nakabayashi, All rights reserved.
* Version 3.10, Generated on Sat Mar  8 22:41:23 2008
*               Plate
*               | Grid
*               | | Cathode
*               | | |
.SUBCKT 50HB26T A G K
BGG   GG   0 V=V(G,K)+0.99999978
BM1   M1   0 V=(0.092479665*(URAMP(V(A,K))+1e-10))**-0.92218999
BM2   M2   0 V=(0.6192743*(URAMP(V(GG)+URAMP(V(A,K))/4.1168586)+1e-10))**2.42219
BP    P    0 V=0.0043389918*(URAMP(V(GG)+URAMP(V(A,K))/6.6478758)+1e-10)**1.5
BIK   IK   0 V=U(V(GG))*V(P)+(1-U(V(GG)))*0.0027704924*V(M1)*V(M2)
BIG   IG   0 V=0.0021694959*URAMP(V(G,K))**1.5*(URAMP(V(G,K))/(URAMP(V(A,K))+URAMP(V(G,K)))*1.2+0.4)
BIAK  A    K I=URAMP(V(IK,IG)-URAMP(V(IK,IG)-(0.0031844715*URAMP(V(A,K))**1.5)))+1e-10*V(A,K)
BIGK  G    K I=V(IG)
* CAPS
CGA   G    A 7.6p
CGK   G    K 9.8p
CAK   A    K 6.7p
.ENDS
*
* Generic triode model: 53
* Copyright 2003--2008 by Ayumi Nakabayashi, All rights reserved.
* Version 3.10, Generated on Sat Mar  8 22:41:36 2008
*          Plate
*          | Grid
*          | | Cathode
*          | | |
.SUBCKT 53 A G K
BGG   GG   0 V=V(G,K)+1
BM1   M1   0 V=(0.00077005461*(URAMP(V(A,K))+1e-10))**-0.038461586
BM2   M2   0 V=(0.97499997*(URAMP(V(GG)+URAMP(V(A,K))/32.465269)+1e-10))**1.5384616
BP    P    0 V=0.00055508206*(URAMP(V(GG)+URAMP(V(A,K))/33.297713)+1e-10)**1.5
BIK   IK   0 V=U(V(GG))*V(P)+(1-U(V(GG)))*0.00048212799*V(M1)*V(M2)
BIG   IG   0 V=0.00016903085*URAMP(V(G,K))**1.5*(URAMP(V(G,K))/(URAMP(V(A,K))+URAMP(V(G,K)))*1.2+0.4)
BIAK  A    K I=URAMP(V(IK,IG)-URAMP(V(IK,IG)-(0.00042499185*URAMP(V(A,K))**1.5)))+1e-10*V(A,K)
BIGK  G    K I=V(IG)
* CAPS
CGA   G    A 4p
CGK   G    K 4p
CAK   A    K 4p
.ENDS
*
* Generic triode model: 5687
* Copyright 2003--2008 by Ayumi Nakabayashi, All rights reserved.
* Version 3.10, Generated on Sat Mar  8 22:42:01 2008
*            Plate
*            | Grid
*            | | Cathode
*            | | |
.SUBCKT 5687 A G K
BGG   GG   0 V=V(G,K)+0.35624804
BM1   M1   0 V=(0.022532918*(URAMP(V(A,K))+1e-10))**-0.73087992
BM2   M2   0 V=(0.67238043*(URAMP(V(GG)+URAMP(V(A,K))/14.539598)+1e-10))**2.2308799
BP    P    0 V=0.0048744976*(URAMP(V(GG)+URAMP(V(A,K))/21.624065)+1e-10)**1.5
BIK   IK   0 V=U(V(GG))*V(P)+(1-U(V(GG)))*0.0028821468*V(M1)*V(M2)
BIG   IG   0 V=0.0024372488*URAMP(V(G,K))**1.5*(URAMP(V(G,K))/(URAMP(V(A,K))+URAMP(V(G,K)))*1.2+0.4)
BIAK  A    K I=URAMP(V(IK,IG)-URAMP(V(IK,IG)-(0.0027792585*URAMP(V(A,K))**1.5)))+1e-10*V(A,K)
BIGK  G    K I=V(IG)
* CAPS
CGA   G    A 4p
CGK   G    K 4p
CAK   A    K 0.6p
.ENDS
*
* Generic triode model: 5751
* Copyright 2003--2008 by Ayumi Nakabayashi, All rights reserved.
* Version 3.10, Generated on Sat Mar  8 22:42:03 2008
*            Plate
*            | Grid
*            | | Cathode
*            | | |
.SUBCKT 5751 A G K
BGG   GG   0 V=V(G,K)+0.5559861
BM1   M1   0 V=(0.0052861104*(URAMP(V(A,K))+1e-10))**-0.6766372
BM2   M2   0 V=(0.68913644*(URAMP(V(GG)+URAMP(V(A,K))/58.807619)+1e-10))**2.1766372
BP    P    0 V=0.0013669039*(URAMP(V(GG)+URAMP(V(A,K))/85.335234)+1e-10)**1.5
BIK   IK   0 V=U(V(GG))*V(P)+(1-U(V(GG)))*0.00079762831*V(M1)*V(M2)
BIG   IG   0 V=0.00068345195*URAMP(V(G,K))**1.5*(URAMP(V(G,K))/(URAMP(V(A,K))+URAMP(V(G,K)))*1.2+0.4)
BIAK  A    K I=URAMP(V(IK,IG)-URAMP(V(IK,IG)-(0.00070754928*URAMP(V(A,K))**1.5)))+1e-10*V(A,K)
BIGK  G    K I=V(IG)
* CAPS
CGA   G    A 1.4p
CGK   G    K 1.4p
CAK   A    K 0.5p
.ENDS
*
* Generic triode model: 5842
* Copyright 2003--2008 by Ayumi Nakabayashi, All rights reserved.
* Version 3.10, Generated on Sat Mar  8 22:42:05 2008
*            Plate
*            | Grid
*            | | Cathode
*            | | |
.SUBCKT 5842 A G K
BGG   GG   0 V=V(G,K)+-0.46951652
BM1   M1   0 V=(0.0042897418*(URAMP(V(A,K))+1e-10))**-0.30633316
BM2   M2   0 V=(0.8304116*(URAMP(V(GG)+URAMP(V(A,K))/39.533476)+1e-10))**1.8063332
BP    P    0 V=0.017297881*(URAMP(V(GG)+URAMP(V(A,K))/47.607086)+1e-10)**1.5
BIK   IK   0 V=U(V(GG))*V(P)+(1-U(V(GG)))*0.010632968*V(M1)*V(M2)
BIG   IG   0 V=0.0086489406*URAMP(V(G,K))**1.5*(URAMP(V(G,K))/(URAMP(V(A,K))+URAMP(V(G,K)))*1.2+0.4)
BIAK  A    K I=URAMP(V(IK,IG)-URAMP(V(IK,IG)-(0.0091968129*URAMP(V(A,K))**1.5)))+1e-10*V(A,K)
BIGK  G    K I=V(IG)
* CAPS
CGA   G    A 1.8p
CGK   G    K 9p
CAK   A    K 0.5p
.ENDS
*
* Generic triode model: 5965
* Copyright 2003--2008 by Ayumi Nakabayashi, All rights reserved.
* Version 3.10, Generated on Sat Mar  8 22:42:06 2008
*            Plate
*            | Grid
*            | | Cathode
*            | | |
.SUBCKT 5965 A G K
BGG   GG   0 V=V(G,K)+0.61035688
BM1   M1   0 V=(0.024336203*(URAMP(V(A,K))+1e-10))**-2.1648233
BM2   M2   0 V=(0.40929668*(URAMP(V(GG)+URAMP(V(A,K))/24.272617)+1e-10))**3.6648233
BP    P    0 V=0.0045273524*(URAMP(V(GG)+URAMP(V(A,K))/59.303235)+1e-10)**1.5
BIK   IK   0 V=U(V(GG))*V(P)+(1-U(V(GG)))*0.010017704*V(M1)*V(M2)
BIG   IG   0 V=0.0022636762*URAMP(V(G,K))**1.5*(URAMP(V(G,K))/(URAMP(V(A,K))+URAMP(V(G,K)))*1.2+0.4)
BIAK  A    K I=URAMP(V(IK,IG)-URAMP(V(IK,IG)-(0.0023786712*URAMP(V(A,K))**1.5)))+1e-10*V(A,K)
BIGK  G    K I=V(IG)
* CAPS
CGA   G    A 3p
CGK   G    K 4p
CAK   A    K 0.5p
.ENDS
*
* Generic triode model: 5998
* Copyright 2003--2008 by Ayumi Nakabayashi, All rights reserved.
* Version 3.10, Generated on Sat Mar  8 22:42:08 2008
*            Plate
*            | Grid
*            | | Cathode
*            | | |
.SUBCKT 5998 A G K
BGG   GG   0 V=V(G,K)+1
BM1   M1   0 V=(0.1360498*(URAMP(V(A,K))+1e-10))**-1.7828871
BM2   M2   0 V=(0.4569149*(URAMP(V(GG)+URAMP(V(A,K))/3.9918111)+1e-10))**3.2828871
BP    P    0 V=0.0069534109*(URAMP(V(GG)+URAMP(V(A,K))/8.7364434)+1e-10)**1.5
BIK   IK   0 V=U(V(GG))*V(P)+(1-U(V(GG)))*0.0094617726*V(M1)*V(M2)
BIG   IG   0 V=0.0034767055*URAMP(V(G,K))**1.5*(URAMP(V(G,K))/(URAMP(V(A,K))+URAMP(V(G,K)))*1.2+0.4)