Version 4
SHEET 1 880 680
WIRE 32 -80 -160 -80
WIRE 32 -32 32 -80
WIRE 32 -32 -64 -32
WIRE 112 -32 32 -32
WIRE -64 0 -64 -32
WIRE 112 0 112 -32
WIRE 112 96 112 80
WIRE 208 96 112 96
WIRE 336 96 272 96
WIRE 112 112 112 96
WIRE -256 160 -272 160
WIRE -176 160 -256 160
WIRE -64 160 -64 80
WIRE -64 160 -112 160
WIRE -48 160 -64 160
WIRE 48 160 32 160
WIRE 64 160 48 160
WIRE 336 176 336 96
WIRE -272 208 -272 160
WIRE 112 240 112 208
WIRE -64 256 -64 160
WIRE 112 256 112 240
WIRE -272 400 -272 288
WIRE -64 400 -64 336
WIRE -64 400 -272 400
WIRE 32 400 -64 400
WIRE 112 400 112 336
WIRE 112 400 32 400
WIRE 336 400 336 256
WIRE 336 400 112 400
FLAG 32 400 0
FLAG 336 96 Vout
FLAG -256 160 Vin
FLAG -160 0 0
FLAG -64 160 In
FLAG 112 96 OutC
FLAG 112 240 outE
FLAG 32 160 inB
SYMBOL npn 48 112 R0
SYMATTR InstName Q1
SYMATTR Value 2N3904
SYMBOL res -80 -16 R0
SYMATTR InstName R1
SYMATTR Value 20k
SYMBOL res -80 240 R0
SYMATTR InstName R2
SYMATTR Value 3.6k
SYMBOL res 96 240 R0
SYMATTR InstName R3
SYMATTR Value 220
SYMBOL res 96 -16 R0
SYMATTR InstName R4
SYMATTR Value 1.2k
SYMBOL voltage -160 -96 R0
SYMATTR InstName VCC
SYMATTR Value 12V
SYMBOL cap -112 144 R90
WINDOW 0 0 32 VBottom 2
WINDOW 3 32 32 VTop 2
SYMATTR InstName C1
SYMATTR Value 10µ
SYMBOL cap 272 80 R90
WINDOW 0 0 32 VBottom 2
WINDOW 3 32 32 VTop 2
SYMATTR InstName C2
SYMATTR Value 10µ
SYMBOL voltage -272 192 R0
WINDOW 123 0 0 Left 0
WINDOW 39 0 0 Left 0
SYMATTR InstName V1
SYMATTR Value SINE(0 .1V 10k)
SYMBOL res 48 144 R90
WINDOW 0 0 56 VBottom 2
WINDOW 3 32 56 VTop 2
SYMATTR InstName R5
SYMATTR Value 1
SYMBOL res 320 160 R0
SYMATTR InstName R6
SYMATTR Value 1000k
TEXT -552 -136 Left 2 !.tran 1ms
