Version 4
SHEET 1 1728 700
WIRE 688 -1584 384 -1584
WIRE 896 -1584 768 -1584
WIRE 912 -1584 896 -1584
WIRE 1008 -1584 992 -1584
WIRE 896 -1488 896 -1584
WIRE 912 -1488 896 -1488
WIRE 1008 -1488 1008 -1584
WIRE 1008 -1488 976 -1488
WIRE 896 -1360 896 -1488
WIRE 896 -1360 832 -1360
WIRE 912 -1360 896 -1360
WIRE 384 -1344 384 -1584
WIRE 384 -1344 288 -1344
WIRE 432 -1344 384 -1344
WIRE 448 -1344 432 -1344
WIRE 528 -1344 512 -1344
WIRE 544 -1344 528 -1344
WIRE 640 -1344 624 -1344
WIRE 688 -1344 640 -1344
WIRE 832 -1344 832 -1360
WIRE 832 -1344 768 -1344
WIRE 1008 -1344 1008 -1488
WIRE 1008 -1344 976 -1344
WIRE 288 -1328 288 -1344
WIRE 912 -1328 880 -1328
WIRE 640 -1296 640 -1344
WIRE 880 -1280 880 -1328
WIRE 288 -1232 288 -1248
WIRE 528 -1232 528 -1344
WIRE 560 -1232 528 -1232
WIRE 640 -1232 624 -1232
WIRE -96 -1152 -96 -1168
WIRE 16 -1152 16 -1168
WIRE 528 -1120 528 -1232
WIRE 544 -1120 528 -1120
WIRE 640 -1104 640 -1232
WIRE 640 -1104 608 -1104
WIRE 544 -1088 512 -1088
WIRE -96 -1056 -96 -1072
WIRE 16 -1056 16 -1072
WIRE 512 -1040 512 -1088
FLAG -96 -1168 +V
FLAG 288 -1232 0
FLAG 288 -1344 IN
FLAG 576 -1136 +V
FLAG 16 -1168 -V
FLAG 576 -1072 -V
FLAG 16 -1056 0
FLAG -96 -1056 0
FLAG 512 -1040 0
FLAG 944 -1376 +V
FLAG 944 -1312 -V
FLAG 880 -1280 0
FLAG 640 -1344 Out1
FLAG 1008 -1584 Out2
FLAG 640 -1104 Out0
SYMBOL voltage -96 -1168 R0
WINDOW 123 0 0 Left 2
WINDOW 39 0 0 Left 2
SYMATTR InstName V1
SYMATTR Value 15
SYMBOL voltage 288 -1344 R0
WINDOW 123 24 146 Left 2
WINDOW 39 24 125 Left 2
SYMATTR InstName Vin
SYMATTR Value SINE(0 1 2K)
SYMBOL res 528 -1360 R90
WINDOW 0 0 56 VBottom 2
WINDOW 3 32 56 VTop 2
SYMATTR InstName R1
SYMATTR Value 1K
SYMBOL res 640 -1360 R90
WINDOW 0 0 56 VBottom 2
WINDOW 3 32 56 VTop 2
SYMATTR InstName R2
SYMATTR Value 1K
SYMBOL voltage 16 -1168 R0
WINDOW 123 24 146 Left 2
WINDOW 39 24 125 Left 2
SYMATTR InstName V2
SYMATTR Value -15
SYMBOL opamps\\OP27 576 -1168 R0
SYMATTR InstName U1
SYMBOL diode 624 -1296 R0
SYMATTR InstName D1
SYMATTR Value 1N4148
SYMBOL diode 624 -1248 R90
WINDOW 0 0 32 VBottom 2
WINDOW 3 32 32 VTop 2
SYMATTR InstName D2
SYMATTR Value 1N4148
SYMBOL res 784 -1600 R90
WINDOW 0 0 56 VBottom 2
WINDOW 3 32 56 VTop 2
SYMATTR InstName R3
SYMATTR Value 8K
SYMBOL res 784 -1360 R90
WINDOW 0 0 56 VBottom 2
WINDOW 3 32 56 VTop 2
SYMATTR InstName R4
SYMATTR Value 4k
SYMBOL opamps\\OP27 944 -1408 R0
SYMATTR InstName U2
SYMBOL res 1008 -1600 R90
WINDOW 0 0 56 VBottom 2
WINDOW 3 32 56 VTop 2
SYMATTR InstName R5
SYMATTR Value 8K
SYMBOL cap 976 -1504 R90
WINDOW 0 0 32 VBottom 2
WINDOW 3 32 32 VTop 2
SYMATTR InstName C1
SYMATTR Value .4nf
TEXT 176 -1496 Left 2 !.tran 3m
TEXT 624 -1480 Left 2 ;R3=2R4
TEXT 1120 -1496 Left 2 ;RC f=50k => 25x f(Vin)=> 20x almost good enough
TEXT -160 -1488 Left 2 !.plot Out0
