Version 4
SHEET 1 880 680
WIRE 400 -32 240 -32
WIRE 240 0 240 -32
WIRE 400 64 400 -32
WIRE 240 112 240 80
WIRE 48 160 16 160
WIRE 160 160 128 160
WIRE 16 192 16 160
WIRE 16 288 16 272
WIRE 240 288 240 208
WIRE 240 288 16 288
WIRE 400 288 400 144
WIRE 400 288 240 288
WIRE 240 304 240 288
FLAG 240 304 0
SYMBOL res 32 176 R270
WINDOW 0 32 56 VTop 2
WINDOW 3 0 56 VBottom 2
SYMATTR InstName R1
SYMATTR Value 5
SYMBOL res 224 -16 R0
SYMATTR InstName R2
SYMATTR Value 100
SYMBOL voltage 400 48 R0
WINDOW 123 0 0 Left 2
WINDOW 39 0 0 Left 2
SYMATTR InstName V1
SYMATTR Value 400
SYMBOL voltage 16 176 R0
WINDOW 3 24 96 Invisible 2
WINDOW 123 0 0 Left 2
WINDOW 39 0 0 Left 2
SYMATTR Value PULSE(0 15 0 50n 50n 10u 20u)
SYMATTR InstName V2
SYMBOL ValVol\\Infineon\\MOS\\CoolMOS 208 160 R0
SYMATTR InstName U2
SYMATTR SpiceModel SPW47N65C3_L0
TEXT -16 328 Left 2 !.tran 100u
