Version 4
SHEET 1 1412 708
WIRE -64 464 -80 464
WIRE -16 464 -32 464
WIRE 16 464 0 464
WIRE 64 464 48 464
WIRE -48 496 -48 480
WIRE 32 496 32 480
WIRE -64 544 -80 544
WIRE -16 544 -32 544
WIRE 16 544 0 544
WIRE 64 544 48 544
WIRE -48 576 -48 560
WIRE 32 576 32 560
SYMBOL amp 960 -272 R0
SYMATTR InstName U1
SYMBOL ampinv 1088 -272 R0
SYMATTR InstName U2
SYMBOL ampinv2 1232 -272 R0
SYMATTR InstName U3
SYMBOL ampinv2_ 1232 -128 R0
SYMATTR InstName U4
SYMBOL ampinv_ 1088 -128 R0
SYMATTR InstName U5
SYMBOL amp_ 960 -128 R0
SYMATTR InstName U6
SYMBOL const 0 336 R0
WINDOW 3 18 0 Right 0
SYMATTR InstName U7
SYMBOL sum -16 464 R0
SYMATTR InstName U8
SYMBOL sum_ 64 464 R0
SYMATTR InstName U9
SYMBOL subtr -16 544 R0
SYMATTR InstName U10
SYMBOL subtr_ 64 544 R0
SYMATTR InstName U11
SYMBOL dif 224 64 R0
SYMATTR InstName U12
SYMBOL dif_ 224 208 R0
SYMATTR InstName U13
SYMBOL dif2 -32 64 R0
SYMATTR InstName U14
SYMBOL dif2_ -32 208 R0
SYMATTR InstName U15
SYMBOL int 352 64 R0
SYMATTR InstName U16
SYMBOL int_ 352 208 R0
SYMATTR InstName U17
SYMBOL int2 96 64 R0
SYMATTR InstName U18
SYMBOL int2_ 96 208 R0
SYMATTR InstName U19
SYMBOL intdelay 480 64 R0
SYMATTR InstName U20
SYMBOL intdelay_ 480 208 R0
SYMATTR InstName U21
SYMBOL genSin 48 -240 R0
SYMATTR InstName U22
SYMBOL genPulse 288 -288 R0
SYMATTR InstName U23
SYMBOL genLine 544 -288 R0
SYMATTR InstName U24
SYMBOL genTrap 816 -288 R0
SYMATTR InstName U25
SYMBOL limit 144 368 R0
SYMATTR InstName U26
SYMBOL limit_ 144 544 R0
SYMATTR InstName U27
SYMBOL difDelay 608 64 R0
SYMATTR SpiceModel IntDelay
SYMATTR InstName U32
SYMBOL difDelay_ 608 208 R0
SYMATTR InstName U33
SYMBOL const_ -16 400 R0
WINDOW 3 -14 0 Left 0
SYMATTR InstName U34
SYMBOL osc 736 64 R0
SYMATTR InstName U35
SYMBOL osc_ 736 208 R0
SYMATTR InstName U36
SYMBOL gensinA 48 -80 R0
SYMATTR InstName U37
SYMBOL genPulseB 288 -128 R0
SYMATTR InstName U38
SYMBOL genTrapB 816 -128 R0
WINDOW 3 -91 -47 Center 0
SYMATTR InstName U40
SYMBOL genlineb 544 -128 R0
SYMATTR InstName U39
SYMBOL lap2 1184 64 R0
SYMATTR InstName U41
SYMBOL lap2_ 1184 208 R0
SYMATTR InstName U42
SYMBOL lap 896 64 R0
SYMATTR InstName U43
SYMBOL lap_ 896 208 R0
SYMATTR InstName U44
SYMBOL lap1 1040 64 R0
SYMATTR InstName U45
SYMBOL lap1_ 1040 208 R0
SYMATTR InstName U46
SYMBOL dead 288 368 R0
SYMATTR InstName U47
SYMBOL dead_ 288 544 R0
SYMATTR InstName U48
SYMBOL deadB 432 368 R0
SYMATTR InstName U49
SYMBOL deadB_ 432 544 R0
SYMATTR InstName U50
SYMBOL func 896 368 R0
SYMATTR InstName U51
SYMBOL func_ 896 544 R0
SYMATTR InstName U52
SYMBOL func1 1040 368 R0
SYMATTR InstName U53
SYMBOL func1_ 1040 544 R0
SYMATTR InstName U54
SYMBOL func2 1184 368 R0
SYMATTR InstName U55
SYMBOL func2_ 1184 544 R0
SYMATTR InstName U56
SYMBOL hyster 608 368 R0
SYMATTR InstName U57
SYMBOL hysterb 752 368 R0
SYMATTR InstName U58
SYMBOL hyster_ 608 544 R0
SYMATTR InstName U59
SYMBOL hysterb_ 752 544 R0
SYMATTR InstName U60
