* MODELLING FOR STP5NK100Z
 
.SUBCKT STP5NK100Z 1 2 3
LG 2 4  7.5E-09
LS 12 3 7.5E-09
LD 6 1  4.5E-09
RG 4 5  2.99998
RS 9 12 0.143E-01
RD 7 6  2.428
RJ 8 7  0.223E-03
CGS 5 9   0.116631E-08
CGD 7 10  0.171964E-08
CK  11 7  0.163212E-10
DGD 11 7 DGD
DBS 12 6 DBS
DBD  9 7 DBD
MOS  13 5 9 9 MOS L=1u W=1u
E1  10 5 101 0 1
E2  11 5 102 0 1
E3  8 13 POLY(2) 6 8 6 12 0 0 0 0  0.216E-01
G1  0 100 7 5 1u
D1  100 101  DID
D2  102 100  DID
R1  101 0  1MEG
R2  102 0  1MEG
.ENDS STP5NK100Z
 
.MODEL MOS NMOS
+ LEVEL = 3
+ VTO   = 4.635
+ PHI   = 0.831
+ IS    = 0.1E-12
+ JS    = 0
+ THETA = 0.176E-01
+ KP    = 4.649
 
.MODEL DGD D
+ IS    = 0.1E-12
+ CJO   = 0.350293E-10
+ VJ    = 0.776441
+ M     = 0.348922
.MODEL DBD D
+ IS    = 0.1E-12
+ CJO   = 0.113600E-10
+ VJ    = 0.738825
+ M     = 0.341548
.MODEL DBS D
+ IS    = 0.1E-12
+ BV    = 1555
+ N     = 1
+ TT    = 0.739471E-06
+ RS    = 0.565524E-02
.MODEL DID D
+ IS    = 0.01E-12
+ RS    = 0
+ BV    = 1565
 
* END OF MODELLING
