* MODELLING FOR STS4NF100
 
.SUBCKT STS4NF100 1 2 3
LG 2 4  7.5E-09
LS 12 3 7.5E-09
LD 6 1  4.5E-09
RG 4 5  4.483
RS 9 12 0.897E-03
RD 7 6  0.445E-01
RJ 8 7  0.101E-03
CGS 5 9   0.111E-08
CGD 7 10  0.156E-08
CK  11 7  0.262E-10
DGD 11 7 DGD
DBS 12 6 DBS
DBD  9 7 DBD
MOS  13 5 9 9 MOS L=1u W=1u
E1  10 5 101 0 1
E2  11 5 102 0 1
E3  8 13 POLY(2) 6 8 6 12 0 0 0 0  0.349
G1  0 100 7 5 1u
D1  100 101  DID
D2  102 100  DID
R1  101 0  1MEG
R2  102 0  1MEG
 
.MODEL MOS NMOS
+ LEVEL = 3
+ VTO   = 3.597
+ PHI   = 0.978
+ IS    = 0.1E-12
+ JS    = 0
+ THETA = 0.379
+ KP    = 25.096
 
.MODEL DGD D
+ IS    = 0.1E-12
+ CJO   = 0.121E-09
+ VJ    = 0.775
+ M     = 0.301
.MODEL DBD D
+ IS    = 0.1E-12
+ CJO   = 0.364E-10
+ VJ    = 0.875
+ M     = 0.358
.MODEL DBS D
+ IS    = 0.1E-12
+ BV    = 106
+ N     = 1
+ TT    = 0.105E-06
+ RS    = 0.401E-02
.MODEL DID D
+ IS    = 0.01E-12
+ RS    = 0
+ BV    = 116
.ENDS STS4NF100

* END OF MODELLING
