*
*       _/_/_/_/_/_/                          
*     _/       _/                             
*      _/_/   _/          STMicroelectronics  
*         _/ _/                               
*   _/_/_/  _/                                
*   www.st.com                                
*                                             
* 
*****************************************************
*     Model Generated by STMicroelectronics         *
*             All Rights Reserved       	    *
*      Commercial Use or Resale Restricted          *
*****************************************************
* CREATION DATES: 25-09-2008                        *
*                                                   *
* POWER MOSFET Model (level 3)                      *
*                                                   *
* EXTERNAL PINS DESCRIPTION:                        *
*                                                   *
* PIN 1 -> Drain                                    *
* PIN 2 -> Gate                                     *
* PIN 3 -> Source                                   *
*                                                   *
*                    ****C****                      *
*            **********************                 *
*     ***************************************       *
*  PARAMETER MODELS EXTRACTED FROM MEASURED DATA    *
*              <<<<<<<<<<<>>>>>>>>>>>               *
*     ***************************************       *
*   THIS MODEL CAN BE USED AT TEMPERATURE: 25 °C    *
*                                                   *
*****************************************************

* MODELLING FOR STU2NK100Z
 
.SUBCKT STU2NK100Z 1 2 3
LG 2 4  4.5E-09
LS 12 3 4.5E-09
LD 6 1  2.5E-09
RG 4 5  6.592
RS 9 12 0.731E-01
RD 7 6  5.813
RJ 8 7  0.242E-02
CGS 5 9   0.383E-09
CGD 7 10  0.571E-09
CK  11 7  0.174E-12
DGD 11 7 DGD
DBS 12 6 DBS
DBD  9 7 DBD
MOS  13 5 9 9 MOS L=1u W=1u
E1  10 5 101 0 1
E2  11 5 102 0 1
E3  8 13 POLY(2) 6 8 6 12 0 0 0 0  0.129E-01
G1  0 100 7 5 1u
D1  100 101  DID
D2  102 100  DID
R1  101 0  1MEG
R2  102 0  1MEG
 
.MODEL MOS NMOS
+ LEVEL = 3
+ VTO   = 4.739
+ PHI   = 0.881
+ IS    = 0.1E-12
+ JS    = 0
+ THETA = 0.704E-02
+ KP    = 3.898
+ ETA   = 0.497E-03
 
.MODEL DGD D
+ IS    = 0.1E-12
+ CJO   = 0.212E-09
+ VJ    = 1.063
+ M     = 0.599
.MODEL DBD D
+ IS    = 0.1E-12
+ CJO   = 0.931E-09
+ VJ    = 1.044
+ M     = 0.567
.MODEL DBS D
+ IS    = 0.1E-12
+ BV    = 1025
+ N     = 1
+ TT    = 0.531E-06
+ RS    = 0.948E-01
.MODEL DID D
+ IS    = 0.01E-12
+ RS    = 0
+ BV    = 1035
 
.ENDS STU2NK100Z
 
* END OF MODELLING
