* MODELLING FOR STW11NK100Z
 
.SUBCKT STW11NK100Z 1 2 3
LG 2 4  7.5n
LS 12 3 7.5n
LD 6 1  4.5n
RG 4 5  1.992
RS 9 12 0.864E-02
RD 7 6  0.716
RJ 8 7  0.968E-02
CGS 5 9   0.315E-08
CGD 7 10  0.463E-08
CK  11 7  0.485E-10
DGD 11 7 DGD
DBS 12 6 DBS
DBD  9 7 DBD
MOS  13 5 9 9 MOS L=1u W=1u
E1  10 5 101 0 1
E2  11 5 102 0 1
E3  8 13 POLY(2) 6 8 6 12 0 0 0 0  0.217E-01
G1  0 100 7 5 1u
D1  100 101  DID
D2  102 100  DID
R1  101 0  1MEG
R2  102 0  1MEG
.ENDS STW11NK100Z
 
.MODEL MOS NMOS
+ LEVEL = 3
+ VTO   = 4.751
+ PHI   = 0.928
+ IS    = 0.1E-12
+ JS    = 0
+ THETA = 0.445E-01
+ KP    = 19.779
 
.MODEL DGD D
+ IS    = 0.1E-12
+ CJO   = 0.136E-10
+ VJ    = 0.738
+ M     = 0.347
.MODEL DBD D
+ IS    = 0.1E-12
+ CJO   = 0.596E-11
+ VJ    = 0.747
+ M     = 0.347
.MODEL DBS D
+ IS    = 0.1E-12
+ BV    = 1069
+ N     = 1
+ TT    = 0.611E-06
+ RS    = 0.446E-02
.MODEL DID D
+ IS    = 0.01E-12
+ RS    = 0
+ BV    = 1079
* END OF MODELLING
