* LMV7239
*****************************************************************************
* (C) Copyright 2013 Texas Instruments Incorporated. All rights reserved.
*****************************************************************************
** This model is designed as an aid for customers of Texas Instruments.
** TI and its licensors and suppliers make no warranties, either expressed
** or implied, with respect to this model, including the warranties of
** merchantability or fitness for a particular purpose.  The model is
** provided solely on an "as is" basis.  The entire risk as to its quality
** and performance is with the customer.
*****************************************************************************
*
** Released by: WEBENCH(R) Design Center, Texas Instruments Inc.
* Part: LMV7239
* Date: 4/9/2013
* Model Type: All In One
* Simulator: TINA-TI
* Simulator Version: 9.3.30.248 SF-TI
* EVM Order Number: N/A
* EVM Users Guide: N/A
* Datasheet: SNOS532M –SEPTEMBER 2000–REVISED FEBRUARY 2013
*
* Model Version: 1.0
*
*****************************************************************************
*
* Updates:
*
* Version 1.0 : Release to Web
*
*****************************************************************************
* Notes:
* 1. The parameters shown on page 3 to page 8 of the datasheet are all 
*    being modeled. 
*
* 2. If the parameters typical value is slighly different from the plot 
*    as shown on Figure 3 to Figure 17, the plot value is being used 
*
* 3. The propagation delay is modeled with various variations according 
*    to Figure 10 to Figure 17 of the datasheet
*
* 4. For accurate propagation delay over supply, it requires user to alter 
*    the .PARAM value (VDD and VSS) as well as the actual voltage 
*    supply/generator/vdc attached to to the supply pins on the test benches. 
*    The default for .PARAM VDD is 5V and .PARAM VSS is 0V.
*
* 5. For accurate propagation over Input Common Range Voltage, it requires 
*    the user to alter the .PARAM VICM that is defaulted to mid supply, 2.5V
*    If the user does not change the VICM value accordingly, the user will be
*    getting mid supply input common range propagation delay value assuming 
*    5V and 0V supply (VICM = 2.5V). 
*    
*    For most cases, it is recommended that the user sets VICM at mid supply. 
*    For instance for 2.7V, 0V supply, the user can set it to 1.35V.
*
*****************************************************************************
.SUBCKT LMV7239 Vinm Vinp VCC VEE Vout
+ PARAMS: VDD = 5.00  VSS = 0.00  VICM = 2.50

X1 VCC VEE Vinp Vinm Vout AMP
+ PARAMS: VDD = {VDD}  VSS = {VSS}  VICM = {VICM}

.ENDS


.SUBCKT  AMP  VDD VSS VIP VIM VO
+ PARAMS: VDD = 2.50  VSS = -2.50  VICM = 0.00

*VPD PD GNDF 1
*VEN EN GNDF 0


XU101 12 13 GNDF GNDF VIP VIM VDD VSS LMV7239_IBIAS_HT1

*XU101        12 13 GNDF GNDF  IBIAS_NEW
*+ PARAMS: IBIASP = 35n IBIASN = 30n
*XU101        12 13 GNDF GNDF  IBIAS_NEW2
*+ PARAMS: IBIAS = 30n IBIASOFFSET = 5n


*Vos         12 20 0
Vos         12 20 1m


XU15         VDD VSS VIMON  ILOAD_NEW
*XU15         VDD VSS VIMON PD  ILOAD_NEW_PD
*XU15         VDD VSS VIMON EN  ILOAD_NEW_EN
*+ PARAMS: VON = 0.5

*VXU1 7 8 0
XU1 7 8 VDD VSS  LMV7239_OUT_CURRENT_CLAMP_HT1

*XU1         7 8  OUT_CURRENT_CLAMP
*XU1         7 8 PD  OUT_CURRENT_CLAMP_PD
*XU1         7 8 EN  OUT_CURRENT_CLAMP_EN
*+ PARAMS: RSER = 0.1 ROFF = 1G VON = 0.5 IMAX = 55m IMIN = 60m

*Check impact of inductor on this
*RXU9 9 7 75
*LXU9 9 7 1n
LXU9 9 7a 0.5n
RXU9 7a 7 2.5

*VXU9 9 7 0
*XU9         9 7 GNDF ZOUT_1
*+ PARAMS: FZ1 = 10G FZ2 = 10G FZ3 = 10G FP1 = 10G FP2 = 10G FEQ = 10G RO = 0.016

VXU100 10 10a 0



*VXU5 10a 9 0
*EXU5 9 0 VALUE = { V(10a) }
XU5    VDD VSS 10a 9 VIMON GNDF VOHVOL
*XU5         VDD VSS 10a 9 VIMON GNDF VDD_CLP VSS_CLP VCLAMP_W_CLAW
*+ PARAMS: VMAXIO = 0.15 VMINIO = 0.25 SLOPE = 0

VXU10 11 10 0
*XU10         11 10 GNDF TF
*+ PARAMS: FZ1 = 1000G FZ2 = 1000G FZ3 = 1000G FZ4 = 1000G
*+  FZ5 = 1000G FP1 = 1000G FP2 = 1000G FP3 = 1000G FP4 = 1000G

XU13         VDD VSS 12 13 14 15 GNDF CMR
+ PARAMS: VMAX = -0.2 VMIN = -0.2

XU11         VDD VSS GNDF GND_FLOAT_NEW

*EXU14 11 GNDF 14 15 1
XU14 14 15 11 GNDF VDD VSS LMV7239_MAIN_HT1
+ PARAMS: VDD = {VDD}  VSS = {VSS}  VICM = {VICM}

*XU14        14 15 11 GNDF  GBW_SLEW_SE_TANH
*+ PARAMS: AOL = 78 GBW = 9800MEG SRP = 5000MEG SRN = 5000MEG IT = 1M TANHONOFF=0





XU12 	VDD VSS  LMV7239_IQ_HT1

*XU12         VDD VSS  IQ
*XU12         VDD VSS PD  IQ_PD
*XU12         VDD VSS EN  IQ_EN
*+ PARAMS: VON = 0.5 IQQ = 65u  IOFF = 1p



*XD4         VSS 13 IDEAL_DIODE
*+ PARAMS: EMCO = 0.01 BRKV = 60 IBRKV = 1M
*XD3         13 VDD IDEAL_DIODE
*+ PARAMS: EMCO = 0.01 BRKV = 60 IBRKV = 1M
*XD2         VSS 12 IDEAL_DIODE
*+ PARAMS: EMCO = 0.01 BRKV = 60 IBRKV = 1M
*XD1         12 VDD IDEAL_DIODE
*+ PARAMS: EMCO = 0.01 BRKV = 60 IBRKV = 1M

XU6         8 VO VIMON AMETER
+ PARAMS: GAIN = 1


*VXU8 21 13 0
XU8         21 13 GNDF CMRR
+ PARAMS: CMRR = 65 FCMRR = 10000k

*VXU7 22 21 0
XU7       VDD VSS 22 21 GNDF PSRR
+ PARAMS: PSRRP = 85 FPSRRP = 10000k
+ PSRRN = 85 FPSRRN = 10000k

*XU4         20 22 FEMT
*+ PARAMS: NLFF = 3E3 FLWF = 100k NVRF = 2.1E3

VXU3 23 20 0
*XU3         23 20 VNSE
*+ PARAMS: NLF = 3 FLW = 100k NVR = 2.4

*RXU2a VIP 23 1u
*RXU2b VIM 22 1u
*VXU2a VIP 23 0
*VXU2b VIM 22 0
XU2         VIP VIM 23 22 GNDF INPUT_NEW
+ PARAMS: RCM = 0.1 CCM = 1f CDM = 1f
* PARAMS: AOL = 78 GBW = 9800MEG SRP = 5000MEG SRN = 5000MEG IT = 1M TANHONOFF=0
.ENDS

****************************************************************************************************
****************************************************************************************************
****************************************************************************************************
****************************************************************************************************
****************************************************************************************************
****************************************************************************************************
****************************************************************************************************
****************************************************************************************************
****************************************************************************************************
****************************************************************************************************
.SUBCKT LMV7239_IQ_HT1 VDD VSS

.PARAM TEMP_ABCDEF_X1 = {-40}
.PARAM TEMP_ABCDEF_X2 = {125}

.PARAM TEMP_A_Y1 = {2.2}
.PARAM TEMP_A_Y2 = {1.1}

.PARAM TEMP_B_Y1 = {1p}
.PARAM TEMP_B_Y2 = {1p}

.PARAM TEMP_C_Y1 = {2.5}
.PARAM TEMP_C_Y2 = {1.4}

.PARAM TEMP_D_Y1 = {42u}
.PARAM TEMP_D_Y2 = {77u}

.PARAM TEMP_E_Y1 = {5}
.PARAM TEMP_E_Y2 = {5}

.PARAM TEMP_F_Y1 = {51u}
.PARAM TEMP_F_Y2 = {103u}


.PARAM TEMP_A_SLOPE = { ( TEMP_A_Y2-TEMP_A_Y1 ) / ( TEMP_ABCDEF_X2-TEMP_ABCDEF_X1 ) }
.PARAM TEMP_A_INTCP = { TEMP_A_Y1 - TEMP_A_SLOPE * TEMP_ABCDEF_X1 }

.PARAM TEMP_B_SLOPE = { ( TEMP_B_Y2-TEMP_B_Y1 ) / ( TEMP_ABCDEF_X2-TEMP_ABCDEF_X1 ) }
.PARAM TEMP_B_INTCP = { TEMP_B_Y1 - TEMP_B_SLOPE * TEMP_ABCDEF_X1 }

.PARAM TEMP_C_SLOPE = { ( TEMP_C_Y2-TEMP_C_Y1 ) / ( TEMP_ABCDEF_X2-TEMP_ABCDEF_X1 ) }
.PARAM TEMP_C_INTCP = { TEMP_C_Y1 - TEMP_C_SLOPE * TEMP_ABCDEF_X1 }

.PARAM TEMP_D_SLOPE = { ( TEMP_D_Y2-TEMP_D_Y1 ) / ( TEMP_ABCDEF_X2-TEMP_ABCDEF_X1 ) }
.PARAM TEMP_D_INTCP = { TEMP_D_Y1 - TEMP_D_SLOPE * TEMP_ABCDEF_X1 }

.PARAM TEMP_E_SLOPE = { ( TEMP_E_Y2-TEMP_E_Y1 ) / ( TEMP_ABCDEF_X2-TEMP_ABCDEF_X1 ) }
.PARAM TEMP_E_INTCP = { TEMP_E_Y1 - TEMP_E_SLOPE * TEMP_ABCDEF_X1 }

.PARAM TEMP_F_SLOPE = { ( TEMP_F_Y2-TEMP_F_Y1 ) / ( TEMP_ABCDEF_X2-TEMP_ABCDEF_X1 ) }
.PARAM TEMP_F_INTCP = { TEMP_F_Y1 - TEMP_F_SLOPE * TEMP_ABCDEF_X1 }


.PARAM X1 = { TEMP_A_SLOPE * TEMP + TEMP_A_INTCP }
.PARAM Y1 = { TEMP_B_SLOPE * TEMP + TEMP_B_INTCP }

.PARAM X2 = { TEMP_C_SLOPE * TEMP + TEMP_C_INTCP }
.PARAM Y2 = { TEMP_D_SLOPE * TEMP + TEMP_D_INTCP }

.PARAM X3 = { TEMP_E_SLOPE * TEMP + TEMP_E_INTCP }
.PARAM Y3 = { TEMP_F_SLOPE * TEMP + TEMP_F_INTCP }


EREG1 REG1 0 VALUE = { IF ( V(VDD,VSS)           	 <= X1, 1, 0 ) }
EREG2 REG2 0 VALUE = { IF ( V(VDD,VSS) > X1 & V(VDD,VSS) <= X2, 1, 0 ) }
EREG3 REG3 0 VALUE = { IF ( V(VDD,VSS) > X2		      , 1, 0 ) }


.PARAM REG2_SLOPE = { ( Y2-Y1 ) / ( X2-X1 ) }
.PARAM REG2_INTCP = { Y1 - REG2_SLOPE * X1 }

.PARAM REG3_SLOPE = { ( Y3-Y2 ) / ( X3-X2 ) }
.PARAM REG3_INTCP = { Y2 - REG3_SLOPE * X2 }


G1 VDD VSS VALUE = { V(REG1) * Y1 					+
+                    V(REG2) * ( REG2_SLOPE * V(VDD,VSS) + REG2_INTCP )	+
+ 		     V(REG3) * ( REG3_SLOPE * V(VDD,VSS) + REG3_INTCP )		}



.ENDS



.SUBCKT LMV7239_OUT_CURRENT_CLAMP_HT1 IN OUT VDD VSS

.PARAM ISOURCE_X1 = {2.7}
.PARAM ISOURCE_Y1 = {15m}

.PARAM ISOURCE_X2 = {5.0}
.PARAM ISOURCE_Y2 = {55m}

.PARAM ISINK_X1 = {2.7}
.PARAM ISINK_Y1 = {20m}

.PARAM ISINK_X2 = {5.0}
.PARAM ISINK_Y2 = {60m}


.PARAM ISOURCE_SLOPE = { ( ISOURCE_Y2-ISOURCE_Y1 ) / ( ISOURCE_X2-ISOURCE_X1 ) }
.PARAM ISOURCE_INTCP = { ISOURCE_Y1 - ISOURCE_SLOPE * ISOURCE_X1 }

.PARAM ISINK_SLOPE = { ( ISINK_Y2-ISINK_Y1 ) / ( ISINK_X2-ISINK_X1 ) }
.PARAM ISINK_INTCP = { ISINK_Y1 - ISINK_SLOPE * ISINK_X1 }

EISOURCE ISOURCE 0 VALUE = { ISOURCE_SLOPE * V(VDD,VSS) + ISOURCE_INTCP   }
EISINK   ISINK   0 VALUE = { ISINK_SLOPE   * V(VDD,VSS) + ISINK_INTCP     }

EVTHRES VTHRES 0 VALUE = { IF ( V(VDD,VSS) < 1.9, 0, 1 ) }

.PARAM RSER = 0.1

GRES IN OUT VALUE = { V(VTHRES) * LIMIT( V(IN,OUT)/RSER, V(ISOURCE),-V(ISINK) ) }

.ENDS




.SUBCKT LMV7239_IBIAS_HT1 VIP  VIM  NODE1  NODE2 VIP_ORIG VIM_ORIG VDD VSS

EOD OD 0 VALUE = { V(VIP_ORIG,VIM_ORIG) }

EREG1 REG1 0 VALUE = { IF ( V(OD)            		       <= 0.6		    , 1, 0 ) }
EREG2 REG2 0 VALUE = { IF ( V(OD) > 0.6 	       & V(OD) <= 0.8		    , 1, 0 ) }
EREG3 REG3 0 VALUE = { IF ( V(OD) > 0.8 	       & V(OD) <= ( V(VDD,VSS)-0.8 ), 1, 0 ) }
EREG4 REG4 0 VALUE = { IF ( V(OD) > ( V(VDD,VSS)-0.8 ) & V(OD) <= ( V(VDD,VSS)-0.6 ), 1, 0 ) }
EREG5 REG5 0 VALUE = { IF ( V(OD) > ( V(VDD,VSS)-0.6 ) 				    , 1, 0 ) }


.PARAM ABCDEF_X1 = { 2.7 }
.PaRAM ABCDEF_X2 = { 5.0 }

.PARAM A_Y1 = { -30n }
.PARAM A_Y2 = { -38n }

.PARAM B_Y1 = { -22n }
.PARAM B_Y2 = { -31n }

.PARAM C_Y1 = {   0  }
.PARAM C_Y2 = { -13n }

.PARAM D_Y1 = {   8n }
.PARAM D_Y2 = {  14n }

.PARAM E_Y1 = {  27n }
.PARAM E_Y2 = {  30n }

.PARAM F_Y1 = {  28n }
.PARAM F_Y2 = {  31n }


.PARAM A_SLOPE = { ( A_Y2-A_Y1 ) / ( ABCDEF_X2-ABCDEF_X1 ) }
.PARAM A_INTCP = { A_Y1 - A_SLOPE * ABCDEF_X1 }

.PARAM B_SLOPE = { ( B_Y2-B_Y1 ) / ( ABCDEF_X2-ABCDEF_X1 ) }
.PARAM B_INTCP = { B_Y1 - B_SLOPE * ABCDEF_X1 }

.PARAM C_SLOPE = { ( C_Y2-C_Y1 ) / ( ABCDEF_X2-ABCDEF_X1 ) }
.PARAM C_INTCP = { C_Y1 - C_SLOPE * ABCDEF_X1 }

.PARAM D_SLOPE = { ( D_Y2-D_Y1 ) / ( ABCDEF_X2-ABCDEF_X1 ) }
.PARAM D_INTCP = { D_Y1 - D_SLOPE * ABCDEF_X1 }

.PARAM E_SLOPE = { ( E_Y2-E_Y1 ) / ( ABCDEF_X2-ABCDEF_X1 ) }
.PARAM E_INTCP = { E_Y1 - E_SLOPE * ABCDEF_X1 }

.PARAM F_SLOPE = { ( F_Y2-F_Y1 ) / ( ABCDEF_X2-ABCDEF_X1 ) }
.PARAM F_INTCP = { F_Y1 - F_SLOPE * ABCDEF_X1 }


EX1 X1 0 VALUE = { -0.2 }
EY1 Y1 0 VALUE = { A_SLOPE * V(VDD,VSS) + A_INTCP }

EX2 X2 0 VALUE = { 0.6 }
EY2 Y2 0 VALUE = { B_SLOPE * V(VDD,VSS) + B_INTCP }

EX3 X3 0 VALUE = { 0.8 }
EY3 Y3 0 VALUE = { C_SLOPE * V(VDD,VSS) + C_INTCP }

EX4 X4 0 VALUE = { V(VDD,VSS) - 0.8 }
EY4 Y4 0 VALUE = { D_SLOPE * V(VDD,VSS) + D_INTCP }

EX5 X5 0 VALUE = { V(VDD,VSS) - 0.6 }
EY5 Y5 0 VALUE = { E_SLOPE * V(VDD,VSS) + E_INTCP }

EX6 X6 0 VALUE = { V(VDD,VSS) }
EY6 Y6 0 VALUE = { F_SLOPE * V(VDD,VSS) + F_INTCP }


EREG1_SLOPE REG1_SLOPE 0 VALUE = { ( V(Y2)-V(Y1) ) / ( V(X2)-V(X1) ) }
EREG1_INTCP REG1_INTCP 0 VALUE = { V(Y1) - V(REG1_SLOPE) * V(X1) }

EREG2_SLOPE REG2_SLOPE 0 VALUE = { ( V(Y3)-V(Y2) ) / ( V(X3)-V(X2) ) }
EREG2_INTCP REG2_INTCP 0 VALUE = { V(Y2) - V(REG2_SLOPE) * V(X2) }

EREG3_SLOPE REG3_SLOPE 0 VALUE = { ( V(Y4)-V(Y3) ) / ( V(X4)-V(X3) ) }
EREG3_INTCP REG3_INTCP 0 VALUE = { V(Y3) - V(REG3_SLOPE) * V(X3) }

EREG4_SLOPE REG4_SLOPE 0 VALUE = { ( V(Y5)-V(Y4) ) / ( V(X5)-V(X4) ) }
EREG4_INTCP REG4_INTCP 0 VALUE = { V(Y4) - V(REG4_SLOPE) * V(X4) }

EREG5_SLOPE REG5_SLOPE 0 VALUE = { ( V(Y6)-V(Y5) ) / ( V(X6)-V(X5) ) }
EREG5_INTCP REG5_INTCP 0 VALUE = { V(Y5) - V(REG5_SLOPE) * V(X5) }



EIBIAS IBIAS 0 VALUE = { V(REG1) * ( V(REG1_SLOPE) * V(OD) + V(REG1_INTCP) ) +
+			 V(REG2) * ( V(REG2_SLOPE) * V(OD) + V(REG2_INTCP) ) +
+			 V(REG3) * ( V(REG3_SLOPE) * V(OD) + V(REG3_INTCP) ) +
+			 V(REG4) * ( V(REG4_SLOPE) * V(OD) + V(REG4_INTCP) ) +
+			 V(REG5) * ( V(REG5_SLOPE) * V(OD) + V(REG5_INTCP) ) 	 }

.PARAM IBIASOFFSET = {2n}


EIBIASP IBIASP 0 VALUE = { V(IBIAS) + IBIASOFFSET/2 }
EIBIASN IBIASN 0 VALUE = { V(IBIAS) - IBIASOFFSET/2 }

GIBP  VIP NODE1 VALUE = { V(IBIASP) }
GIBN  VIM NODE2 VALUE = { V(IBIASN) }


.ENDS




*0123456789012345678901234567890123456789012345678901234567890123456789012345678901234567890123456789

.SUBCKT LMV7239_MAIN_HT1  VIP  VIM  VO  GNDF VDD VSS
+ PARAMS: VDD = 2.50  VSS = -2.50  VICM = 0.00


*The TPD data are calibrated at 5V, 20mV, 15pF, 25 Cel, Mid Supply VICM
.PARAM VDDVSS ={ VDD - VSS }

.PARAM VDDVSSTPD_X1 = { 2.7 }
.PARAM VDDVSSTPD_Y1 = { 8n  }

.PARAM VDDVSSTPD_X2 = { 5.0 }
.PARAM VDDVSSTPD_Y2 = { 0n  }

.PARAM VDDVSSTPD_SLOPE = { ( VDDVSSTPD_Y2-VDDVSSTPD_Y1 ) / ( VDDVSSTPD_X2-VDDVSSTPD_X1 ) }
.PARAM VDDVSSTPD_INTCP ={ VDDVSSTPD_Y1 - VDDVSSTPD_SLOPE * VDDVSSTPD_X1 }

.PARAM VDDVSSTPD  = { VDDVSSTPD_SLOPE * VDDVSS + VDDVSSTPD_INTCP   }
.PARAM TPD_VDDVSS = { VDDVSSTPD }




.PARAM VICMTPDH_X1 = { VSS + 0.000 }
.PARAM VICMTPDH_Y1 = {   88n - 89n }

.PARAM VICMTPDH_X2 = { VSS + 0.125 }
.PARAM VICMTPDH_Y2 = {   99n - 89n }

.PARAM VICMTPDH_X3 = { VSS + 0.500 }
.PARAM VICMTPDH_Y3 = {   99n - 89n }

.PARAM VICMTPDH_X4 = { VSS + 0.700 }
.PARAM VICMTPDH_Y4 = {   86n - 89n }

.PARAM VICMTPDH_X5 = { VSS + 0.900 }
.PARAM VICMTPDH_Y5 = {   89n - 89n }

.PARAM VICMTPDH_X6 = { VDD - 0.800 }
.PARAM VICMTPDH_Y6 = {   89n - 89n }

.PARAM VICMTPDH_X7 = { VDD - 0.600 }
.PARAM VICMTPDH_Y7 = {  102n - 89n }

.PARAM VICMTPDH_X8 = { VDD - 0.500 }
.PARAM VICMTPDH_Y8 = {   95n - 89n }

.PARAM VICMTPDH_X9 = { VDD - 0.000 }
.PARAM VICMTPDH_Y9 = {   95n - 89n }



.PARAM VICMTPDH_REG1_SLOPE = { ( VICMTPDH_Y2-VICMTPDH_Y1 ) / ( VICMTPDH_X2-VICMTPDH_X1 ) }
.PARAM VICMTPDH_REG1_INTCP = { VICMTPDH_Y1 - VICMTPDH_REG1_SLOPE * VICMTPDH_X1 }

.PARAM VICMTPDH_REG2_SLOPE = { ( VICMTPDH_Y3-VICMTPDH_Y2 ) / ( VICMTPDH_X3-VICMTPDH_X2 ) }
.PARAM VICMTPDH_REG2_INTCP = { VICMTPDH_Y2 - VICMTPDH_REG2_SLOPE * VICMTPDH_X2 }

.PARAM VICMTPDH_REG3_SLOPE = { ( VICMTPDH_Y4-VICMTPDH_Y3 ) / ( VICMTPDH_X4-VICMTPDH_X3 ) }
.PARAM VICMTPDH_REG3_INTCP = { VICMTPDH_Y3 - VICMTPDH_REG3_SLOPE * VICMTPDH_X3 }

.PARAM VICMTPDH_REG4_SLOPE = { ( VICMTPDH_Y5-VICMTPDH_Y4 ) / ( VICMTPDH_X5-VICMTPDH_X4 ) }
.PARAM VICMTPDH_REG4_INTCP = { VICMTPDH_Y4 - VICMTPDH_REG4_SLOPE * VICMTPDH_X4 }

.PARAM VICMTPDH_REG5_SLOPE = { ( VICMTPDH_Y6-VICMTPDH_Y5 ) / ( VICMTPDH_X6-VICMTPDH_X5 ) }
.PARAM VICMTPDH_REG5_INTCP = { VICMTPDH_Y5 - VICMTPDH_REG5_SLOPE * VICMTPDH_X5 }

.PARAM VICMTPDH_REG6_SLOPE = { ( VICMTPDH_Y7-VICMTPDH_Y6 ) / ( VICMTPDH_X7-VICMTPDH_X6 ) }
.PARAM VICMTPDH_REG6_INTCP = { VICMTPDH_Y6 - VICMTPDH_REG6_SLOPE * VICMTPDH_X6 }

.PARAM VICMTPDH_REG7_SLOPE = { ( VICMTPDH_Y8-VICMTPDH_Y7 ) / ( VICMTPDH_X8-VICMTPDH_X7 ) }
.PARAM VICMTPDH_REG7_INTCP = { VICMTPDH_Y7 - VICMTPDH_REG7_SLOPE * VICMTPDH_X7 }

.PARAM VICMTPDH_REG8_SLOPE = { ( VICMTPDH_Y9-VICMTPDH_Y8 ) / ( VICMTPDH_X9-VICMTPDH_X8 ) }
.PARAM VICMTPDH_REG8_INTCP = { VICMTPDH_Y8 - VICMTPDH_REG8_SLOPE * VICMTPDH_X8 }



.PARAM VICMTPDH_REG1 = { IF ( 		 	   VICM <= VICMTPDH_X2, 1, 0 ) }
.PARAM VICMTPDH_REG2 = { IF ( VICM > VICMTPDH_X2 & VICM <= VICMTPDH_X3, 1, 0 ) }
.PARAM VICMTPDH_REG3 = { IF ( VICM > VICMTPDH_X3 & VICM <= VICMTPDH_X4, 1, 0 ) }
.PARAM VICMTPDH_REG4 = { IF ( VICM > VICMTPDH_X4 & VICM <= VICMTPDH_X5, 1, 0 ) }
.PARAM VICMTPDH_REG5 = { IF ( VICM > VICMTPDH_X5 & VICM <= VICMTPDH_X6, 1, 0 ) }
.PARAM VICMTPDH_REG6 = { IF ( VICM > VICMTPDH_X6 & VICM <= VICMTPDH_X7, 1, 0 ) }
.PARAM VICMTPDH_REG7 = { IF ( VICM > VICMTPDH_X7 & VICM <= VICMTPDH_X8, 1, 0 ) }
.PARAM VICMTPDH_REG8 = { IF ( VICM > VICMTPDH_X8		      , 1, 0 ) }



.PARAM VICMTPDH = {
+ VICMTPDH_REG1 * ( VICMTPDH_REG1_SLOPE * VICM + VICMTPDH_REG1_INTCP ) +
+ VICMTPDH_REG2 * ( VICMTPDH_REG2_SLOPE * VICM + VICMTPDH_REG2_INTCP ) +
+ VICMTPDH_REG3 * ( VICMTPDH_REG3_SLOPE * VICM + VICMTPDH_REG3_INTCP ) +
+ VICMTPDH_REG4 * ( VICMTPDH_REG4_SLOPE * VICM + VICMTPDH_REG4_INTCP ) +
+ VICMTPDH_REG5 * ( VICMTPDH_REG5_SLOPE * VICM + VICMTPDH_REG5_INTCP ) +
+ VICMTPDH_REG6 * ( VICMTPDH_REG6_SLOPE * VICM + VICMTPDH_REG6_INTCP ) +
+ VICMTPDH_REG7 * ( VICMTPDH_REG7_SLOPE * VICM + VICMTPDH_REG7_INTCP ) +
+ VICMTPDH_REG8 * ( VICMTPDH_REG8_SLOPE * VICM + VICMTPDH_REG8_INTCP ) +
+ 0			  }

.PARAM TPDH_VICM = { VICMTPDH }




*Blue Falling edge plot
.PARAM VICMTPDL_X1 = { VSS + 0.000 }
.PARAM VICMTPDL_Y1 = {   99n - 89n }

.PARAM VICMTPDL_X2 = { VSS + 0.500 }
.PARAM VICMTPDL_Y2 = {   99n - 89n }

.PARAM VICMTPDL_X3 = { VSS + 0.700 }
.PARAM VICMTPDL_Y3 = {  108n - 89n }

.PARAM VICMTPDL_X4 = { VSS + 0.900 }
.PARAM VICMTPDL_Y4 = {   89n - 89n }

.PARAM VICMTPDL_X5 = { VDD - 0.800 }
.PARAM VICMTPDL_Y5 = {   89n - 89n }

.PARAM VICMTPDL_X6 = { VDD - 0.700 }
.PARAM VICMTPDL_Y6 = {   83n - 89n }

.PARAM VICMTPDL_X7 = { VDD - 0.500 }
.PARAM VICMTPDL_Y7 = {   92n - 89n }

.PARAM VICMTPDL_X8 = { VDD - 0.100 }
.PARAM VICMTPDL_Y8 = {   92n - 89n }

.PARAM VICMTPDL_X9 = { VDD - 0.000 }
.PARAM VICMTPDL_Y9 = {   80n - 89n }



.PARAM VICMTPDL_REG1_SLOPE = { ( VICMTPDL_Y2-VICMTPDL_Y1 ) / ( VICMTPDL_X2-VICMTPDL_X1 ) }
.PARAM VICMTPDL_REG1_INTCP = { VICMTPDL_Y1 - VICMTPDL_REG1_SLOPE * VICMTPDL_X1 }

.PARAM VICMTPDL_REG2_SLOPE = { ( VICMTPDL_Y3-VICMTPDL_Y2 ) / ( VICMTPDL_X3-VICMTPDL_X2 ) }
.PARAM VICMTPDL_REG2_INTCP = { VICMTPDL_Y2 - VICMTPDL_REG2_SLOPE * VICMTPDL_X2 }

.PARAM VICMTPDL_REG3_SLOPE = { ( VICMTPDL_Y4-VICMTPDL_Y3 ) / ( VICMTPDL_X4-VICMTPDL_X3 ) }
.PARAM VICMTPDL_REG3_INTCP = { VICMTPDL_Y3 - VICMTPDL_REG3_SLOPE * VICMTPDL_X3 }

.PARAM VICMTPDL_REG4_SLOPE = { ( VICMTPDL_Y5-VICMTPDL_Y4 ) / ( VICMTPDL_X5-VICMTPDL_X4 ) }
.PARAM VICMTPDL_REG4_INTCP = { VICMTPDL_Y4 - VICMTPDL_REG4_SLOPE * VICMTPDL_X4 }

.PARAM VICMTPDL_REG5_SLOPE = { ( VICMTPDL_Y6-VICMTPDL_Y5 ) / ( VICMTPDL_X6-VICMTPDL_X5 ) }
.PARAM VICMTPDL_REG5_INTCP = { VICMTPDL_Y5 - VICMTPDL_REG5_SLOPE * VICMTPDL_X5 }

.PARAM VICMTPDL_REG6_SLOPE = { ( VICMTPDL_Y7-VICMTPDL_Y6 ) / ( VICMTPDL_X7-VICMTPDL_X6 ) }
.PARAM VICMTPDL_REG6_INTCP = { VICMTPDL_Y6 - VICMTPDL_REG6_SLOPE * VICMTPDL_X6 }

.PARAM VICMTPDL_REG7_SLOPE = { ( VICMTPDL_Y8-VICMTPDL_Y7 ) / ( VICMTPDL_X8-VICMTPDL_X7 ) }
.PARAM VICMTPDL_REG7_INTCP = { VICMTPDL_Y7 - VICMTPDL_REG7_SLOPE * VICMTPDL_X7 }

.PARAM VICMTPDL_REG8_SLOPE = { ( VICMTPDL_Y9-VICMTPDL_Y8 ) / ( VICMTPDL_X9-VICMTPDL_X8 ) }
.PARAM VICMTPDL_REG8_INTCP = { VICMTPDL_Y8 - VICMTPDL_REG8_SLOPE * VICMTPDL_X8 }



.PARAM VICMTPDL_REG1 = { IF ( 		 	   VICM <= VICMTPDL_X2, 1, 0 ) }
.PARAM VICMTPDL_REG2 = { IF ( VICM > VICMTPDL_X2 & VICM <= VICMTPDL_X3, 1, 0 ) }
.PARAM VICMTPDL_REG3 = { IF ( VICM > VICMTPDL_X3 & VICM <= VICMTPDL_X4, 1, 0 ) }
.PARAM VICMTPDL_REG4 = { IF ( VICM > VICMTPDL_X4 & VICM <= VICMTPDL_X5, 1, 0 ) }
.PARAM VICMTPDL_REG5 = { IF ( VICM > VICMTPDL_X5 & VICM <= VICMTPDL_X6, 1, 0 ) }
.PARAM VICMTPDL_REG6 = { IF ( VICM > VICMTPDL_X6 & VICM <= VICMTPDL_X7, 1, 0 ) }
.PARAM VICMTPDL_REG7 = { IF ( VICM > VICMTPDL_X7 & VICM <= VICMTPDL_X8, 1, 0 ) }
.PARAM VICMTPDL_REG8 = { IF ( VICM > VICMTPDL_X8		      , 1, 0 ) }



.PARAM VICMTPDL = {
+ VICMTPDL_REG1 * ( VICMTPDL_REG1_SLOPE * VICM + VICMTPDL_REG1_INTCP ) +
+ VICMTPDL_REG2 * ( VICMTPDL_REG2_SLOPE * VICM + VICMTPDL_REG2_INTCP ) +
+ VICMTPDL_REG3 * ( VICMTPDL_REG3_SLOPE * VICM + VICMTPDL_REG3_INTCP ) +
+ VICMTPDL_REG4 * ( VICMTPDL_REG4_SLOPE * VICM + VICMTPDL_REG4_INTCP ) +
+ VICMTPDL_REG5 * ( VICMTPDL_REG5_SLOPE * VICM + VICMTPDL_REG5_INTCP ) +
+ VICMTPDL_REG6 * ( VICMTPDL_REG6_SLOPE * VICM + VICMTPDL_REG6_INTCP ) +
+ VICMTPDL_REG7 * ( VICMTPDL_REG7_SLOPE * VICM + VICMTPDL_REG7_INTCP ) +
+ VICMTPDL_REG8 * ( VICMTPDL_REG8_SLOPE * VICM + VICMTPDL_REG8_INTCP ) +
+ 0			  }

.PARAM TPDL_VICM = { VICMTPDL }
*.PARAM TPDL_VICM = { 0n }


X1 VIP VIM VO GNDF VDD VSS DELAYTOPMINUS1
+ PARAMS: TPDH_ADD = { TPD_VDDVSS + TPDH_VICM }  TPDL_ADD = { TPD_VDDVSS + TPDL_VICM }

*EVO VO 0 VALUE = { TPDL_VICM }



.ENDS




.SUBCKT DELAYTOPMINUS1 VIP VIM VO GNDF VDD VSS
+ PARAMS: TPDH_ADD = 0n TPDL_ADD = 0n

*EVO_INT1 VO_INT1 0 VALUE = { IF ( V(VIP,VIM) >= 0, V(VDD), V(VSS) )  }
EVO_INT1 VO_INT1 0 VALUE = { LIMIT ( V(VIP,VIM) * 10000 , V(VDD), V(VSS) ) }

EVODSIGN VODSIGN 0 VALUE = { IF ( V(VIP,VIM) >= 0  , 1, 0 ) }

XVOD_20mV_TPDH VO_INT1 VOD_20mV_TPDH DELAY PARAMS: TPD = { 89.00n + TPDH_ADD }
XVOD_20mV_TPDL VO_INT1 VOD_20mV_TPDL DELAY PARAMS: TPD = { 89.00n + TPDL_ADD }

XVOD_21mV_TPDH VO_INT1 VOD_21mV_TPDH DELAY PARAMS: TPD = { 88.87n + TPDH_ADD }
XVOD_21mV_TPDL VO_INT1 VOD_21mV_TPDL DELAY PARAMS: TPD = { 88.75n + TPDL_ADD }

XVOD_22mV_TPDH VO_INT1 VOD_22mV_TPDH DELAY PARAMS: TPD = { 88.74n + TPDH_ADD }
XVOD_22mV_TPDL VO_INT1 VOD_22mV_TPDL DELAY PARAMS: TPD = { 88.50n + TPDL_ADD }

XVOD_23mV_TPDH VO_INT1 VOD_23mV_TPDH DELAY PARAMS: TPD = { 88.61n + TPDH_ADD }
XVOD_23mV_TPDL VO_INT1 VOD_23mV_TPDL DELAY PARAMS: TPD = { 88.25n + TPDL_ADD }

XVOD_24mV_TPDH VO_INT1 VOD_24mV_TPDH DELAY PARAMS: TPD = { 88.48n + TPDH_ADD }
XVOD_24mV_TPDL VO_INT1 VOD_24mV_TPDL DELAY PARAMS: TPD = { 88.00n + TPDL_ADD }

XVOD_25mV_TPDH VO_INT1 VOD_25mV_TPDH DELAY PARAMS: TPD = { 88.35n + TPDH_ADD }
XVOD_25mV_TPDL VO_INT1 VOD_25mV_TPDL DELAY PARAMS: TPD = { 87.75n + TPDL_ADD }

XVOD_26mV_TPDH VO_INT1 VOD_26mV_TPDH DELAY PARAMS: TPD = { 88.22n + TPDH_ADD }
XVOD_26mV_TPDL VO_INT1 VOD_26mV_TPDL DELAY PARAMS: TPD = { 87.50n + TPDL_ADD }

XVOD_27mV_TPDH VO_INT1 VOD_27mV_TPDH DELAY PARAMS: TPD = { 88.09n + TPDH_ADD }
XVOD_27mV_TPDL VO_INT1 VOD_27mV_TPDL DELAY PARAMS: TPD = { 87.25n + TPDL_ADD }

XVOD_28mV_TPDH VO_INT1 VOD_28mV_TPDH DELAY PARAMS: TPD = { 87.96n + TPDH_ADD }
XVOD_28mV_TPDL VO_INT1 VOD_28mV_TPDL DELAY PARAMS: TPD = { 87.00n + TPDL_ADD }

XVOD_29mV_TPDH VO_INT1 VOD_29mV_TPDH DELAY PARAMS: TPD = { 87.83n + TPDH_ADD }
XVOD_29mV_TPDL VO_INT1 VOD_29mV_TPDL DELAY PARAMS: TPD = { 86.75n + TPDL_ADD }


XVOD_30mV_TPDH VO_INT1 VOD_30mV_TPDH DELAY PARAMS: TPD = { 87.70n + TPDH_ADD }
XVOD_30mV_TPDL VO_INT1 VOD_30mV_TPDL DELAY PARAMS: TPD = { 86.50n + TPDL_ADD }

XVOD_31mV_TPDH VO_INT1 VOD_31mV_TPDH DELAY PARAMS: TPD = { 87.57n + TPDH_ADD }
XVOD_31mV_TPDL VO_INT1 VOD_31mV_TPDL DELAY PARAMS: TPD = { 86.25n + TPDL_ADD }

XVOD_32mV_TPDH VO_INT1 VOD_32mV_TPDH DELAY PARAMS: TPD = { 87.44n + TPDH_ADD }
XVOD_32mV_TPDL VO_INT1 VOD_32mV_TPDL DELAY PARAMS: TPD = { 86.00n + TPDL_ADD }

XVOD_33mV_TPDH VO_INT1 VOD_33mV_TPDH DELAY PARAMS: TPD = { 87.31n + TPDH_ADD }
XVOD_33mV_TPDL VO_INT1 VOD_33mV_TPDL DELAY PARAMS: TPD = { 85.75n + TPDL_ADD }

XVOD_34mV_TPDH VO_INT1 VOD_34mV_TPDH DELAY PARAMS: TPD = { 87.18n + TPDH_ADD }
XVOD_34mV_TPDL VO_INT1 VOD_34mV_TPDL DELAY PARAMS: TPD = { 85.50n + TPDL_ADD }

XVOD_35mV_TPDH VO_INT1 VOD_35mV_TPDH DELAY PARAMS: TPD = { 87.05n + TPDH_ADD }
XVOD_35mV_TPDL VO_INT1 VOD_35mV_TPDL DELAY PARAMS: TPD = { 85.25n + TPDL_ADD }

XVOD_36mV_TPDH VO_INT1 VOD_36mV_TPDH DELAY PARAMS: TPD = { 86.92n + TPDH_ADD }
XVOD_36mV_TPDL VO_INT1 VOD_36mV_TPDL DELAY PARAMS: TPD = { 85.00n + TPDL_ADD }

XVOD_37mV_TPDH VO_INT1 VOD_37mV_TPDH DELAY PARAMS: TPD = { 86.79n + TPDH_ADD }
XVOD_37mV_TPDL VO_INT1 VOD_37mV_TPDL DELAY PARAMS: TPD = { 84.75n + TPDL_ADD }

XVOD_38mV_TPDH VO_INT1 VOD_38mV_TPDH DELAY PARAMS: TPD = { 86.66n + TPDH_ADD }
XVOD_38mV_TPDL VO_INT1 VOD_38mV_TPDL DELAY PARAMS: TPD = { 84.50n + TPDL_ADD }

XVOD_39mV_TPDH VO_INT1 VOD_39mV_TPDH DELAY PARAMS: TPD = { 86.53n + TPDH_ADD }
XVOD_39mV_TPDL VO_INT1 VOD_39mV_TPDL DELAY PARAMS: TPD = { 84.25n + TPDL_ADD }


XVOD_40mV_TPDH VO_INT1 VOD_40mV_TPDH DELAY PARAMS: TPD = { 86.40n + TPDH_ADD }
XVOD_40mV_TPDL VO_INT1 VOD_40mV_TPDL DELAY PARAMS: TPD = { 84.00n + TPDL_ADD }

XVOD_41mV_TPDH VO_INT1 VOD_41mV_TPDH DELAY PARAMS: TPD = { 86.20n + TPDH_ADD }
XVOD_41mV_TPDL VO_INT1 VOD_41mV_TPDL DELAY PARAMS: TPD = { 83.70n + TPDL_ADD }

XVOD_42mV_TPDH VO_INT1 VOD_42mV_TPDH DELAY PARAMS: TPD = { 85.99n + TPDH_ADD }
XVOD_42mV_TPDL VO_INT1 VOD_42mV_TPDL DELAY PARAMS: TPD = { 83.40n + TPDL_ADD }

XVOD_43mV_TPDH VO_INT1 VOD_43mV_TPDH DELAY PARAMS: TPD = { 85.79n + TPDH_ADD }
XVOD_43mV_TPDL VO_INT1 VOD_43mV_TPDL DELAY PARAMS: TPD = { 83.10n + TPDL_ADD }

XVOD_44mV_TPDH VO_INT1 VOD_44mV_TPDH DELAY PARAMS: TPD = { 85.58n + TPDH_ADD }
XVOD_44mV_TPDL VO_INT1 VOD_44mV_TPDL DELAY PARAMS: TPD = { 82.80n + TPDL_ADD }

XVOD_45mV_TPDH VO_INT1 VOD_45mV_TPDH DELAY PARAMS: TPD = { 85.38n + TPDH_ADD }
XVOD_45mV_TPDL VO_INT1 VOD_45mV_TPDL DELAY PARAMS: TPD = { 82.50n + TPDL_ADD }

XVOD_46mV_TPDH VO_INT1 VOD_46mV_TPDH DELAY PARAMS: TPD = { 85.17n + TPDH_ADD }
XVOD_46mV_TPDL VO_INT1 VOD_46mV_TPDL DELAY PARAMS: TPD = { 82.20n + TPDL_ADD }

XVOD_47mV_TPDH VO_INT1 VOD_47mV_TPDH DELAY PARAMS: TPD = { 84.97n + TPDH_ADD }
XVOD_47mV_TPDL VO_INT1 VOD_47mV_TPDL DELAY PARAMS: TPD = { 81.90n + TPDL_ADD }

XVOD_48mV_TPDH VO_INT1 VOD_48mV_TPDH DELAY PARAMS: TPD = { 84.76n + TPDH_ADD }
XVOD_48mV_TPDL VO_INT1 VOD_48mV_TPDL DELAY PARAMS: TPD = { 81.60n + TPDL_ADD }

XVOD_49mV_TPDH VO_INT1 VOD_49mV_TPDH DELAY PARAMS: TPD = { 84.56n + TPDH_ADD }
XVOD_49mV_TPDL VO_INT1 VOD_49mV_TPDL DELAY PARAMS: TPD = { 81.30n + TPDL_ADD }


XVOD_50mV_TPDH VO_INT1 VOD_50mV_TPDH DELAY PARAMS: TPD = { 84.35n + TPDH_ADD }
XVOD_50mV_TPDL VO_INT1 VOD_50mV_TPDL DELAY PARAMS: TPD = { 81.00n + TPDL_ADD }

XVOD_51mV_TPDH VO_INT1 VOD_51mV_TPDH DELAY PARAMS: TPD = { 84.15n + TPDH_ADD }
XVOD_51mV_TPDL VO_INT1 VOD_51mV_TPDL DELAY PARAMS: TPD = { 80.70n + TPDL_ADD }

XVOD_52mV_TPDH VO_INT1 VOD_52mV_TPDH DELAY PARAMS: TPD = { 83.94n + TPDH_ADD }
XVOD_52mV_TPDL VO_INT1 VOD_52mV_TPDL DELAY PARAMS: TPD = { 80.40n + TPDL_ADD }

XVOD_53mV_TPDH VO_INT1 VOD_53mV_TPDH DELAY PARAMS: TPD = { 83.74n + TPDH_ADD }
XVOD_53mV_TPDL VO_INT1 VOD_53mV_TPDL DELAY PARAMS: TPD = { 80.10n + TPDL_ADD }

XVOD_54mV_TPDH VO_INT1 VOD_54mV_TPDH DELAY PARAMS: TPD = { 83.53n + TPDH_ADD }
XVOD_54mV_TPDL VO_INT1 VOD_54mV_TPDL DELAY PARAMS: TPD = { 79.80n + TPDL_ADD }

XVOD_55mV_TPDH VO_INT1 VOD_55mV_TPDH DELAY PARAMS: TPD = { 83.33n + TPDH_ADD }
XVOD_55mV_TPDL VO_INT1 VOD_55mV_TPDL DELAY PARAMS: TPD = { 79.50n + TPDL_ADD }

XVOD_56mV_TPDH VO_INT1 VOD_56mV_TPDH DELAY PARAMS: TPD = { 83.12n + TPDH_ADD }
XVOD_56mV_TPDL VO_INT1 VOD_56mV_TPDL DELAY PARAMS: TPD = { 79.20n + TPDL_ADD }

XVOD_57mV_TPDH VO_INT1 VOD_57mV_TPDH DELAY PARAMS: TPD = { 82.92n + TPDH_ADD }
XVOD_57mV_TPDL VO_INT1 VOD_57mV_TPDL DELAY PARAMS: TPD = { 78.90n + TPDL_ADD }

XVOD_58mV_TPDH VO_INT1 VOD_58mV_TPDH DELAY PARAMS: TPD = { 82.71n + TPDH_ADD }
XVOD_58mV_TPDL VO_INT1 VOD_58mV_TPDL DELAY PARAMS: TPD = { 78.60n + TPDL_ADD }

XVOD_59mV_TPDH VO_INT1 VOD_59mV_TPDH DELAY PARAMS: TPD = { 82.51n + TPDH_ADD }
XVOD_59mV_TPDL VO_INT1 VOD_59mV_TPDL DELAY PARAMS: TPD = { 78.30n + TPDL_ADD }


XVOD_60mV_TPDH VO_INT1 VOD_60mV_TPDH DELAY PARAMS: TPD = { 82.30n + TPDH_ADD }
XVOD_60mV_TPDL VO_INT1 VOD_60mV_TPDL DELAY PARAMS: TPD = { 78.00n + TPDL_ADD }

XVOD_61mV_TPDH VO_INT1 VOD_61mV_TPDH DELAY PARAMS: TPD = { 82.16n + TPDH_ADD }
XVOD_61mV_TPDL VO_INT1 VOD_61mV_TPDL DELAY PARAMS: TPD = { 77.90n + TPDL_ADD }

XVOD_62mV_TPDH VO_INT1 VOD_62mV_TPDH DELAY PARAMS: TPD = { 82.02n + TPDH_ADD }
XVOD_62mV_TPDL VO_INT1 VOD_62mV_TPDL DELAY PARAMS: TPD = { 77.80n + TPDL_ADD }

XVOD_63mV_TPDH VO_INT1 VOD_63mV_TPDH DELAY PARAMS: TPD = { 81.88n + TPDH_ADD }
XVOD_63mV_TPDL VO_INT1 VOD_63mV_TPDL DELAY PARAMS: TPD = { 77.70n + TPDL_ADD }

XVOD_64mV_TPDH VO_INT1 VOD_64mV_TPDH DELAY PARAMS: TPD = { 81.74n + TPDH_ADD }
XVOD_64mV_TPDL VO_INT1 VOD_64mV_TPDL DELAY PARAMS: TPD = { 77.60n + TPDL_ADD }

XVOD_65mV_TPDH VO_INT1 VOD_65mV_TPDH DELAY PARAMS: TPD = { 81.60n + TPDH_ADD }
XVOD_65mV_TPDL VO_INT1 VOD_65mV_TPDL DELAY PARAMS: TPD = { 77.50n + TPDL_ADD }

XVOD_66mV_TPDH VO_INT1 VOD_66mV_TPDH DELAY PARAMS: TPD = { 81.46n + TPDH_ADD }
XVOD_66mV_TPDL VO_INT1 VOD_66mV_TPDL DELAY PARAMS: TPD = { 77.40n + TPDL_ADD }

XVOD_67mV_TPDH VO_INT1 VOD_67mV_TPDH DELAY PARAMS: TPD = { 81.32n + TPDH_ADD }
XVOD_67mV_TPDL VO_INT1 VOD_67mV_TPDL DELAY PARAMS: TPD = { 77.30n + TPDL_ADD }

XVOD_68mV_TPDH VO_INT1 VOD_68mV_TPDH DELAY PARAMS: TPD = { 81.18n + TPDH_ADD }
XVOD_68mV_TPDL VO_INT1 VOD_68mV_TPDL DELAY PARAMS: TPD = { 77.20n + TPDL_ADD }

XVOD_69mV_TPDH VO_INT1 VOD_69mV_TPDH DELAY PARAMS: TPD = { 81.04n + TPDH_ADD }
XVOD_69mV_TPDL VO_INT1 VOD_69mV_TPDL DELAY PARAMS: TPD = { 77.10n + TPDL_ADD }


XVOD_70mV_TPDH VO_INT1 VOD_70mV_TPDH DELAY PARAMS: TPD = { 80.90n + TPDH_ADD }
XVOD_70mV_TPDL VO_INT1 VOD_70mV_TPDL DELAY PARAMS: TPD = { 77.00n + TPDL_ADD }

XVOD_71mV_TPDH VO_INT1 VOD_71mV_TPDH DELAY PARAMS: TPD = { 80.76n + TPDH_ADD }
XVOD_71mV_TPDL VO_INT1 VOD_71mV_TPDL DELAY PARAMS: TPD = { 76.90n + TPDL_ADD }

XVOD_72mV_TPDH VO_INT1 VOD_72mV_TPDH DELAY PARAMS: TPD = { 80.62n + TPDH_ADD }
XVOD_72mV_TPDL VO_INT1 VOD_72mV_TPDL DELAY PARAMS: TPD = { 76.80n + TPDL_ADD }

XVOD_73mV_TPDH VO_INT1 VOD_73mV_TPDH DELAY PARAMS: TPD = { 80.48n + TPDH_ADD }
XVOD_73mV_TPDL VO_INT1 VOD_73mV_TPDL DELAY PARAMS: TPD = { 76.70n + TPDL_ADD }

XVOD_74mV_TPDH VO_INT1 VOD_74mV_TPDH DELAY PARAMS: TPD = { 80.34n + TPDH_ADD }
XVOD_74mV_TPDL VO_INT1 VOD_74mV_TPDL DELAY PARAMS: TPD = { 76.60n + TPDL_ADD }

XVOD_75mV_TPDH VO_INT1 VOD_75mV_TPDH DELAY PARAMS: TPD = { 80.20n + TPDH_ADD }
XVOD_75mV_TPDL VO_INT1 VOD_75mV_TPDL DELAY PARAMS: TPD = { 76.50n + TPDL_ADD }

XVOD_76mV_TPDH VO_INT1 VOD_76mV_TPDH DELAY PARAMS: TPD = { 80.06n + TPDH_ADD }
XVOD_76mV_TPDL VO_INT1 VOD_76mV_TPDL DELAY PARAMS: TPD = { 76.40n + TPDL_ADD }

XVOD_77mV_TPDH VO_INT1 VOD_77mV_TPDH DELAY PARAMS: TPD = { 79.92n + TPDH_ADD }
XVOD_77mV_TPDL VO_INT1 VOD_77mV_TPDL DELAY PARAMS: TPD = { 76.30n + TPDL_ADD }
