Version 4
SHEET 1 880 680
WIRE -256 -80 -336 -80
WIRE -128 -80 -176 -80
WIRE -16 -80 -128 -80
WIRE 288 -80 240 -80
WIRE 288 -32 288 -80
WIRE 112 48 112 16
WIRE 288 48 112 48
WIRE 128 112 64 112
WIRE 288 112 288 48
WIRE 288 112 128 112
WIRE 320 112 288 112
WIRE 432 112 384 112
WIRE 128 128 128 112
WIRE 432 160 432 112
WIRE 288 176 288 112
WIRE -16 208 -16 112
WIRE 80 208 -16 208
WIRE -80 224 -80 112
WIRE 224 224 128 224
FLAG 288 320 0
FLAG 432 240 0
FLAG -80 304 0
FLAG -336 0 0
FLAG -128 -16 0
FLAG 432 112 OUT
SYMBOL nmos 80 128 R0
SYMATTR InstName M1
SYMATTR Value IRF530
SYMBOL ZZZ\\Darlington\\tip122 288 240 R0
WINDOW 38 0 0 Left 2
SYMATTR InstName U1
SYMBOL ZZZ\\VolReg\\LM317-TI 112 -80 R0
SYMATTR InstName U2
SYMBOL res 272 -48 R0
SYMATTR InstName R1
SYMATTR Value 5
SYMBOL res 80 96 R90
WINDOW 0 0 56 VBottom 2
WINDOW 3 32 56 VTop 2
SYMATTR InstName R2
SYMATTR Value 115k
SYMBOL cap -16 96 R90
WINDOW 0 0 32 VBottom 2
WINDOW 3 32 32 VTop 2
SYMATTR InstName C1
SYMATTR Value 10µ
SYMBOL polcap 320 96 M90
WINDOW 0 0 32 VBottom 2
WINDOW 3 32 32 VTop 2
SYMATTR InstName C2
SYMATTR Value 470µ
SYMATTR Description Capacitor
SYMATTR Type cap
SYMATTR SpiceLine V=16 Irms=500m Rser=0.28 Lser=0 mfg="Nichicon" pn="UPG1C471MPH" type="Al electrolytic"
SYMBOL res 416 144 R0
SYMATTR InstName R3
SYMATTR Value 8
SYMBOL voltage -80 208 R0
WINDOW 123 0 0 Left 2
WINDOW 39 24 124 Left 2
SYMATTR InstName V1
SYMATTR Value SINE(0 200m {Fre})
SYMATTR SpiceLine Rser=1k
SYMBOL voltage -336 -96 R0
WINDOW 123 0 0 Left 2
WINDOW 39 0 0 Left 2
SYMATTR InstName V2
SYMATTR Value 16
SYMBOL res -160 -96 R90
WINDOW 0 0 56 VBottom 2
WINDOW 3 32 56 VTop 2
SYMATTR InstName R4
SYMATTR Value 2
SYMBOL polcap -144 -80 R0
WINDOW 3 24 56 Left 2
SYMATTR InstName C3
SYMATTR Value 2200µ
SYMATTR Description Capacitor
SYMATTR Type cap
SYMATTR SpiceLine V=25 Irms=1.23 Rser=0.053 Lser=0 mfg="Nichicon" pn="UPR1E222MRH" type="Al electrolytic"
TEXT -144 352 Left 2 !.step param Fre list 1k 10k 20k
TEXT -370 356 Left 2 !.tran 3m
