Version 4
SHEET 1 880 680
FLAG 160 208 d0
FLAG 160 240 d1
FLAG 160 272 d2
FLAG 160 304 d3
SYMBOL ZZZ\\LOGIC\\74HC\\74hc161 272 -96 R0
SYMATTR InstName U1
