Version 4
SHEET 1 880 680
WIRE 320 64 208 64
WIRE 208 112 208 64
WIRE 320 112 320 64
WIRE 160 160 80 160
WIRE 80 176 80 160
WIRE 80 272 80 256
WIRE 176 272 176 208
WIRE 176 272 80 272
WIRE 320 272 320 192
WIRE 320 272 176 272
WIRE 320 288 320 272
FLAG 320 288 0
SYMBOL voltage 320 96 R0
SYMATTR InstName V3
SYMATTR Value 0
SYMBOL voltage 80 160 R0
SYMATTR InstName V1
SYMATTR Value 0
SYMBOL ValVol\\Tubes\\6n8s 208 160 R0
SYMATTR InstName U1
TEXT 80 312 Left 2 !.dc V3 0 380 10 V1 -20 0 2
