Version 4
SHEET 1 1592 680
WIRE -272 -240 -272 -256
WIRE -272 -240 -416 -240
WIRE -416 -224 -416 -240
WIRE -272 -224 -272 -240
WIRE -576 -128 -608 -128
WIRE -496 -128 -512 -128
WIRE -416 -128 -416 -144
WIRE -416 -128 -496 -128
WIRE -272 -128 -272 -144
WIRE -208 -128 -272 -128
WIRE -112 -128 -144 -128
WIRE -496 -112 -496 -128
WIRE -416 -112 -416 -128
WIRE -272 -112 -272 -128
WIRE 544 -80 464 -80
WIRE 672 -80 544 -80
WIRE 544 -64 544 -80
WIRE 272 -48 272 -64
WIRE -272 -16 -272 -32
WIRE -224 -16 -272 -16
WIRE -144 -16 -160 -16
WIRE 64 -16 -144 -16
WIRE 464 -16 464 -80
WIRE -496 0 -496 -32
WIRE 64 0 64 -16
WIRE -16 16 -48 16
WIRE 16 16 -16 16
WIRE 672 16 672 -80
WIRE 544 32 544 16
WIRE 544 32 512 32
WIRE 144 48 112 48
WIRE 192 48 144 48
WIRE 272 48 272 16
WIRE 272 48 256 48
WIRE 304 48 272 48
WIRE 416 48 384 48
WIRE -144 64 -144 -16
WIRE -48 64 -48 16
WIRE 144 80 144 48
WIRE 272 80 272 48
WIRE -496 96 -496 64
WIRE -416 96 -416 -32
WIRE -416 96 -496 96
WIRE -352 96 -416 96
WIRE -416 128 -416 96
WIRE -272 128 -272 -16
WIRE 560 160 544 160
WIRE 672 160 640 160
WIRE -528 176 -624 176
WIRE -464 176 -528 176
WIRE -352 176 -352 96
WIRE -320 176 -352 176
WIRE -144 176 -144 144
WIRE -48 176 -48 144
WIRE -48 176 -144 176
WIRE 32 176 -48 176
WIRE 144 176 144 160
WIRE 144 176 112 176
WIRE 160 176 144 176
WIRE 272 176 272 160
WIRE 272 176 256 176
WIRE 336 176 272 176
WIRE 432 176 432 96
WIRE 432 176 416 176
WIRE -48 192 -48 176
WIRE 144 192 144 176
WIRE 272 192 272 176
WIRE 848 192 752 192
WIRE 880 192 848 192
WIRE 928 192 880 192
WIRE 880 208 880 192
WIRE -624 224 -624 176
WIRE -528 224 -528 176
WIRE -144 224 -144 176
WIRE 752 224 752 192
WIRE 432 256 432 176
WIRE 144 304 144 272
WIRE 144 304 112 304
WIRE 192 304 144 304
WIRE 272 304 272 272
WIRE 272 304 256 304
WIRE 304 304 272 304
WIRE 416 304 384 304
WIRE 880 304 880 288
WIRE 880 304 752 304
WIRE -624 320 -624 304
WIRE -528 320 -528 304
WIRE -528 320 -624 320
WIRE 544 320 512 320
WIRE 880 320 880 304
WIRE -528 336 -528 320
WIRE -16 336 -16 16
WIRE 16 336 -16 336
WIRE 272 336 272 304
WIRE 544 336 544 320
WIRE -448 368 -448 224
WIRE -368 368 -448 368
WIRE -304 368 -304 224
WIRE -224 368 -304 368
WIRE -144 368 -144 304
WIRE -144 368 -160 368
WIRE 64 368 64 352
WIRE 64 368 -144 368
WIRE -448 400 -448 368
WIRE -304 400 -304 368
WIRE 272 416 272 400
WIRE 464 432 464 368
WIRE 544 432 544 416
WIRE 544 432 464 432
WIRE 672 432 672 304
WIRE 672 432 544 432
WIRE -448 496 -448 480
WIRE -304 496 -304 480
WIRE -368 544 -368 368
WIRE 96 544 -368 544
WIRE 848 544 848 192
WIRE 848 544 176 544
FLAG 880 320 0
FLAG 256 176 0
FLAG 544 160 0
FLAG 272 -64 0
FLAG 272 416 0
FLAG 160 176 +300V
FLAG -48 192 0
FLAG -304 496 0
FLAG -272 -256 +300V
FLAG -112 -128 0
FLAG -448 496 0
FLAG -608 -128 0
FLAG -528 336 0
FLAG 928 192 out
SYMBOL ValVol\\Tubes\\6p3s 464 32 R0
SYMATTR InstName U1
SYMBOL ValVol\\Tubes\\6p3s 464 320 M180
SYMATTR InstName U2
SYMBOL ValVol\\Tubes\\6n7s 64 304 M270
SYMATTR InstName U3
SYMBOL ValVol\\Tubes\\6n7s 64 48 R90
SYMATTR InstName U4
SYMBOL ValVol\\Tubes\\6n8s -272 176 R0
SYMATTR InstName U5
SYMBOL ValVol\\Tubes\\6n8s -416 176 R0
SYMATTR InstName U6
SYMBOL res 864 192 R0
SYMATTR InstName R1
SYMATTR Value 4
SYMBOL res 528 -80 R0
SYMATTR InstName R2
SYMATTR Value 100
SYMBOL res 528 320 R0
SYMATTR InstName R3
SYMATTR Value 100
SYMBOL res 288 64 R270
WINDOW 0 32 56 VTop 2
WINDOW 3 0 56 VBottom 2
SYMATTR InstName R4
SYMATTR Value 1k
SYMBOL res 288 320 R270
WINDOW 0 32 56 VTop 2
WINDOW 3 0 56 VBottom 2
SYMATTR InstName R5
SYMATTR Value 1k
SYMBOL res 320 192 R270
WINDOW 0 32 56 VTop 2
WINDOW 3 0 56 VBottom 2
SYMATTR InstName R6
SYMATTR Value 300
SYMBOL res 256 64 R0
SYMATTR InstName R7
SYMATTR Value 100k
SYMBOL res 256 176 R0
SYMATTR InstName R8
SYMATTR Value 100k
SYMBOL voltage 656 160 R90
WINDOW 0 -32 56 VBottom 2
WINDOW 3 32 56 VTop 2
WINDOW 123 0 0 Left 2
WINDOW 39 0 0 Left 2
SYMATTR InstName V1
SYMATTR Value 440
SYMBOL cap 256 336 R0
SYMATTR InstName C1
SYMATTR Value 180p
SYMBOL cap 256 -48 R0
WINDOW 0 41 6 Left 2
WINDOW 3 40 35 Left 2
SYMATTR InstName C2
SYMATTR Value 180p
SYMBOL cap 192 64 R270
WINDOW 0 32 32 VTop 2
WINDOW 3 0 32 VBottom 2
SYMATTR InstName C3
SYMATTR Value 0.5µ
SYMBOL cap 192 320 R270
WINDOW 0 32 32 VTop 2
WINDOW 3 0 32 VBottom 2
SYMATTR InstName C4
SYMATTR Value 0.5µ
SYMBOL res 128 64 R0
SYMATTR InstName R9
SYMATTR Value 50k
SYMBOL res 128 176 R0
SYMATTR InstName R10
SYMATTR Value 50k
SYMBOL voltage 128 176 R90
WINDOW 0 -32 56 VBottom 2
WINDOW 3 32 56 VTop 2
WINDOW 123 0 0 Left 2
WINDOW 39 0 0 Left 2
SYMATTR InstName V2
SYMATTR Value 300
SYMBOL res -32 160 R180
WINDOW 0 -62 58 Left 2
WINDOW 3 -46 30 Left 2
SYMATTR InstName R11
SYMATTR Value 820
SYMBOL res -160 48 R0
SYMATTR InstName R12
SYMATTR Value 500k
SYMBOL res -160 208 R0
SYMATTR InstName R13
SYMATTR Value 500k
SYMBOL cap -224 0 R270
WINDOW 0 32 32 VTop 2
WINDOW 3 0 32 VBottom 2
SYMATTR InstName C5
SYMATTR Value 0.25µ
SYMBOL cap -224 384 R270
WINDOW 0 32 32 VTop 2
WINDOW 3 0 32 VBottom 2
SYMATTR InstName C6
SYMATTR Value 0.25µ
SYMBOL res -288 -128 R0
SYMATTR InstName R14
SYMATTR Value 20k
SYMBOL res -288 -240 R0
SYMATTR InstName R15
SYMATTR Value 20k
SYMBOL res -320 384 R0
SYMATTR InstName R16
SYMATTR Value 20k
SYMBOL cap -144 -144 R90
WINDOW 0 0 32 VBottom 2
WINDOW 3 32 32 VTop 2
SYMATTR InstName C7
SYMATTR Value 30µ
SYMATTR SpiceLine Rser=5
SYMBOL res -432 -128 R0
SYMATTR InstName R17
SYMATTR Value 51k
SYMBOL res -432 -240 R0
SYMATTR InstName R18
SYMATTR Value 33k
SYMBOL res -464 384 R0
SYMATTR InstName R19
SYMATTR Value 500
SYMBOL res 80 560 R270
WINDOW 0 32 56 VTop 2
WINDOW 3 0 56 VBottom 2
SYMATTR InstName R20
SYMATTR Value 34k
SYMBOL res -512 -128 R0
SYMATTR InstName R21
SYMATTR Value 6.5k
SYMBOL cap -512 0 R0
SYMATTR InstName C8
SYMATTR Value 180p
SYMBOL cap -576 -112 R270
WINDOW 0 32 32 VTop 2
WINDOW 3 0 32 VBottom 2
SYMATTR InstName C9
SYMATTR Value 30µ
SYMATTR SpiceLine Rser=5
SYMBOL res -544 208 R0
SYMATTR InstName R22
SYMATTR Value 500k
SYMBOL voltage -624 208 R0
WINDOW 3 24 96 Invisible 2
WINDOW 123 24 44 Left 2
WINDOW 39 0 0 Left 2
SYMATTR Value SINE(0 {0.2*1.414} 400)
SYMATTR Value2 AC 1
SYMATTR InstName V3
SYMBOL ValVol\\Tubes\\Push-Pull-OTrans 656 208 R0
SYMATTR InstName U7
SYMATTR SpiceLine Hc=42 Br=1.14 Bs=1.896 OD=0.12 ID=0.07 HT=0.045
SYMATTR SpiceLine2 N1=2142 N2=42 R1=100 R2=0 LS11=95u LS12=67m
TEXT -512 616 Left 2 !.tran 0 1 0.8
TEXT 440 -304 Left 2 !.four 400 13 V(out)
