Version 4
SHEET 1 880 680
WIRE 144 32 0 32
WIRE 288 224 224 224
WIRE 0 240 0 32
WIRE 224 240 224 224
WIRE 288 240 288 224
WIRE 0 336 0 320
WIRE 144 336 144 320
WIRE 144 336 0 336
WIRE 224 336 224 320
WIRE 224 336 144 336
WIRE 288 336 288 320
WIRE 288 336 224 336
WIRE 144 352 144 336
FLAG 144 352 0
SYMBOL ValVol\\Tubes\\Push-Pull-Trans 128 224 R0
SYMATTR InstName U1
SYMATTR SpiceLine OD=0.12 ID=0.07 HT=0.045
SYMATTR SpiceLine2 N1=2142 N2=22 R1=100 R2=0 LS11=95u LS12=67m
SYMBOL voltage 0 224 R0
WINDOW 123 24 124 Left 2
WINDOW 39 0 0 Left 2
WINDOW 3 24 44 Left 2
SYMATTR Value2 AC 1
SYMATTR InstName V1
SYMATTR Value SINE(0 {236.6*1.414} 50)
SYMBOL res 272 224 R0
SYMATTR InstName R1
SYMATTR Value 4g
TEXT 16 376 Left 2 !.tran 0.1
