Version 4
SHEET 1 880 680
WIRE 416 64 208 64
WIRE 208 96 208 64
WIRE 416 112 416 64
WIRE 320 144 256 144
WIRE 160 160 80 160
WIRE 80 176 80 160
WIRE 320 176 320 144
WIRE 80 272 80 256
WIRE 176 272 176 208
WIRE 176 272 80 272
WIRE 320 272 320 256
WIRE 320 272 176 272
WIRE 416 272 416 192
WIRE 416 272 320 272
WIRE 320 288 320 272
FLAG 320 288 0
SYMBOL voltage 416 96 R0
SYMATTR InstName V3
SYMATTR Value 0
SYMBOL voltage 320 160 R0
WINDOW 123 0 0 Left 2
WINDOW 39 0 0 Left 2
SYMATTR InstName V2
SYMATTR Value 250
SYMBOL voltage 80 160 R0
SYMATTR InstName V1
SYMATTR Value 0
SYMBOL ValVol\\Tubes\\gu50 208 144 R0
SYMATTR InstName U1
TEXT 80 312 Left 2 !.dc V3 0 1000 10 V1 -25 5 5
