**********************************************************************
* These models from Duncan Monroe, Marshall Leach, Ayumi Nakabashi,
* Kevin Kennedy and uTgui
* Norman Koren Enhanced Triode model and Pentode Models
**********************************************************************
.SUBCKT TRIODENH A G K
+PARAMS: LIP=1 LIF=3.7E-3 RAF=18E-3 RAS=1 CDO=0 RAP=4E-3
+ ERP=1.5
+ MU0=17.3 MUR=19E-3 EMC=9.6E-6 GCO=0 GCF=213E-6
+ CGA=3.9p CGK=2.4p CAK=0.7p 

************************************************************************
*
* Anode/grid model
*
* Models reduction in mu at large negative grid voltages
* Models change in Ra with negative grid voltages
* Models limit in Ia with high +Vg and low Va
*
* PARAMETERS
*
*       LIP Conduction limit exponent
*       LIF Conduction limit factor
*       CDO Conduction offset
*       RAF Anode resistance factor for neg grid voltages
*       RAP Anode resistance factor for positive grid voltages
*       ERP Emission power
*       MU0 Mu between grid and anode at Vg=0
*       MUR Mu reduction factor for large negative grid voltages
*       EMC Emission coefficient
*       GCO Grid current offset in volts
*       GCF Grid current scale factor
*
************************************************************************

Elim  LI 0  VALUE {PWR(LIMIT{V(A,K),0,1E6},{LIP})*{LIF}}
Egg   GG 0  VALUE {V(G,K)-{CDO}}
Erpf  RP 0  VALUE {1-PWR(LIMIT{-V(GG)*{RAF},0,0.999},{RAS})+LIMIT{V(GG),0,1E6}*{RAP}}
Egr   GR 0  VALUE {LIMIT{V(GG),0,1E6}+LIMIT{(V(GG))*(1+V(GG)*{MUR}),-1E6,0}}
Eem   EM 0  VALUE {LIMIT{V(A,K)+V(GR)*{MU0},0,1E6}}
Eep   EP 0  VALUE {PWR(V(EM),ERP)*{EMC}*V(RP)}
Eel   EL 0  VALUE {LIMIT{V(EP),0,V(LI)}}
Eld   LD 0  VALUE {LIMIT{V(EP)-V(LI),0,1E6}}
Ga    A  K  VALUE {V(EL)}

************************************************************************
*
* Grid current model
*
* Models grid current, along with rise in grid current at low Va
*
************************************************************************
Egf   GF 0  VALUE {PWR(LIMIT{V(G,K)-{GCO},0,1E6},1.5)*{GCF}}
Gg1    G  K  VALUE {(V(GF)+V(LD))}
* gf
*
* Capacitances and anti-float resistors
*
CM1     G       K       {CGK}
CM2     A       G       {CGA}
CM3     A       K       {CAK}
RF1     A       0       1000MEG
RF2     G       0       1000MEG
RF3     K       0       1000MEG

.ENDS
**********************************************************************
* Triode Koren model
******************************************************************************
.SUBCKT TRIODE 1 2 3 ; A G C
E1  7 0 VALUE={V(1,3)/KP*LOG(1+EXP(KP*(1/MU+(V(2,3)+VCT)/SQRT(KVB+V(1,3)*V(1,3)))))}
RE1 7 0 1G
G1  1 3 VALUE={(PWR(V(7,0),EX)+PWRS(V(7,0),EX))/KG1}
RCP 1 3 1G    ; TO AVOID FLOATING NODES IN MU-FOLLOWER
C1  2 3 {CCG}  ; CATHODE-GRID
C2  2 1 {CPG1}  ; GRID-PLATE
C3  1 3 {CCP}  ; CATHODE-PLATE
D3  5 3 DX     ; FOR GRID CURRENT
R1  2 5 {RGI}  ; FOR GRID CURRENT
.ENDS	TRIODE
******************************************************************************
** The models have been superceded. Retained for compatibility. Update any cards to use the
** newer models. 
** Pentode 1-3 Koren models + Barton screen current model
** Pentode 4 new Barton Beam tetrode model
******************************************************************************
.SUBCKT PENTODE1 1 2 3 4 ; A G2 G1 C
RE1  7 0  1MEG    ; DUMMY SO NODE 7 HAS 2 CONNECTIONS
E1   7 0  VALUE={V(2,4)/KP * LOG(1+EXP(( 1/MU + V(3,4)/V(2,4) )*KP))}	; E1 BREAKS UP LONG EQUATION FOR G1.
E2   10 0 VALUE={(PWR(V(7),EX)+PWRS(V(7),EX))/KG1 * ATAN(V(1,4)/KVB)}
G1   1 4  VALUE={V(10)}
R100 10 0  1G    ; DUMMY SO NODE 10 HAS 2 CONNECTIONS
E3   8 0  VALUE={uramp(Up*V(1,4) + Us*V(2,4) + Ug*V(3,4))}
G2   2 4  VALUE ={uramp(pwr(V(8),es)*(I0 +(1-I0)*2/3.14159*atan(s * V(1,4)/V(2,4) ))/1000) - V(10)}
R80  8 0  1MEG    ; DUMMY SO NODE 8 HAS 2 CONNECTIONS
RCP  1 4  1G      ; FOR CONVERGENCE	A  - C
C1   3 4  {CCG}   ; CATHODE-GRID 1	C  - G1
C2   1 3  {CPG1}  ; GRID 1-PLATE	G1 - A
C3   1 4  {CCP}   ; CATHODE-PLATE	A  - C
R1   3 5  {RGI}   ; FOR GRID CURRENT	G1 - 5
D3   5 4  DX      ; FOR GRID CURRENT	5  - C
.ENDS PENTODE1

.SUBCKT PENTODE2 1 2 3 4 ; A G2 G1 C
RE1  7 0  1MEG    ; DUMMY SO NODE 7 HAS 2 CONNECTIONS
E1   7 0  VALUE={V(2,4)/KP*LOG(1+EXP((1/MU+V(3,4)/V(2,4))*KP))}	; E1 BREAKS UP LONG EQUATION FOR G1.
G1   1 4  VALUE={pi/2*(PWR(V(7),EX)+PWRS(V(7),EX))/KG1*(1-exp(-2*V(1,4)/(pi*KVB)))}
E2   0 8  VALUE={uramp(Up*V(1,4) + Us*V(2,4) + Ug*V(3,4))}
G2   4 2  VALUE ={pwr(V(8),es)*(I0 +(1-I0)*2/3.14159*atan(s * V(1,4)/V(2,4))/1000 - I(g1)}
RCP  1 4  1G      ; FOR CONVERGENCE	A  - C
C1   3 4  {CCG}   ; CATHODE-GRID 1	C  - G1
C2   1 3  {CPG1}  ; GRID 1-PLATE	G1 - A
C3   1 4  {CCP}   ; CATHODE-PLATE	A  - C
R1   3 5  {RGI}   ; FOR GRID CURRENT	G1 - 5
D3   5 4  DX      ; FOR GRID CURRENT	5  - C
.ENDS PENTODE2

.SUBCKT PENTODE3 1 2 3 4 ; A G2 G1 C
RE1  7 0  1MEG    ; DUMMY SO NODE 7 HAS 2 CONNECTIONS
E1   7 0  VALUE={V(2,4)/KP*LOG(1+EXP((1/MU+V(3,4)/V(2,4))*KP))}	; E1 BREAKS UP LONG EQUATION FOR G1.
G1   1 4  VALUE={pi/2*(PWR(V(7),EX)+PWRS(V(7),EX))/KG1*tanh(2*V(1,4)/(pi*KVB))}
E2   0 8  VALUE={uramp(Up*V(1,4) + Us*V(2,4) + Ug*V(3,4))}
G2   4 2  VALUE ={pwr(V(8),es)*(I0 +(1-I0)*2/3.14159*atan(s * V(1,4)/V(2,4))/1000 - I(g1)}
RCP  1 4  1G      ; FOR CONVERGENCE	A  - C
C1   3 4  {CCG}   ; CATHODE-GRID 1	C  - G1
C2   1 3  {CPG1}  ; GRID 1-PLATE	G1 - A
C3   1 4  {CCP}   ; CATHODE-PLATE	A  - C
R1   3 5  {RGI}   ; FOR GRID CURRENT	G1 - 5
D3   5 4  DX      ; FOR GRID CURRENT	5  - C
.ENDS PENTODE3

.SUBCKT PENTODE4 1 2 3 4 ; A G2 G1 C
RE1  7 0  1MEG    ; DUMMY SO NODE 7 HAS 2 CONNECTIONS
E1   7 0  VALUE={V(2,4)/KP*LOG(1+EXP((1/MU+V(3,4)/V(2,4))*KP))}	; E1 BREAKS UP LONG EQUATION FOR G1.
G1   1 4  VALUE={(PWR(V(7),EX)+PWRS(V(7),EX))/KG1*(1+cos(pi*(pwr(tanh(V(1,4)/(pi*KVB),2))-1 )))}
E2   0 8  VALUE={uramp(Up*V(1,4) + Us*V(2,4) + Ug*V(3,4))}
G2   4 2  VALUE ={pwr(V(8),es)*(I0 +(1-I0)*2/3.14159*atan(s * V(1,4)/V(2,4))/1000 - I(g1)}
RCP  1 4  1G      ; FOR CONVERGENCE	A  - C
C1   3 4  {CCG}   ; CATHODE-GRID 1	C  - G1
C2   1 3  {CPG1}  ; GRID 1-PLATE	G1 - A
C3   1 4  {CCP}   ; CATHODE-PLATE	A  - C
R1   3 5  {RGI}   ; FOR GRID CURRENT	G1 - 5
D3   5 4  DX      ; FOR GRID CURRENT	5  - C
.ENDS PENTODE4
.MODEL DX D(IS=1N RS=1 CJO=10PF TT=1N) ; diode used by the Triode, Pentode Beam Tetrode models

************************************************************************************************
** Rev (a) Models with (gp)
** Pentode 1-3 Koren models + Barton screen current model + (gp) plate conductance
** Pentode 4 new Barton Beam tetrode model  + (gp) plate conductance
******************************************************************************
.SUBCKT PENTODE1a 1 2 3 4 ; A G2 G1 C
RE1  7 0  1MEG    ; DUMMY SO NODE 7 HAS 2 CONNECTIONS
E1   7 0  VALUE={V(2,4)/KP * LOG(1+EXP(( 1/MU + V(3,4)/V(2,4) )*KP))}	; E1 BREAKS UP LONG EQUATION FOR G1.
E2   10 0 VALUE={(PWR(V(7),EX)+PWRS(V(7),EX))/KG1 * ATAN(V(1,4)/KVB)}
G1   1 4  VALUE={(1+GP*V(1,4))*V(10)}
R100 10 0  1G    ; DUMMY SO NODE 10 HAS 2 CONNECTIONS
E3   8 0  VALUE={uramp(Up*V(1,4) + Us*V(2,4) + Ug*V(3,4))}
G2   2 4  VALUE ={pwr(V(8),es)*(I0 +(1-I0)*2/3.14159*atan(s * V(1,4)/V(2,4)))/1000 - i(g1)}
R80  8 0  1MEG    ; DUMMY SO NODE 8 HAS 2 CONNECTIONS
RCP  1 4  1G      ; FOR CONVERGENCE	A  - C
C1   3 4  {CCG}   ; CATHODE-GRID 1	C  - G1
C2   1 3  {CPG1}  ; GRID 1-PLATE	G1 - A
C3   1 4  {CCP}   ; CATHODE-PLATE	A  - C
R1   3 5  {RGI}   ; FOR GRID CURRENT	G1 - 5
D3   5 4  DX      ; FOR GRID CURRENT	5  - C
.ENDS PENTODE1a

.SUBCKT PENTODE2a 1 2 3 4 ; A G2 G1 C
RE1  7 0  1MEG    ; DUMMY SO NODE 7 HAS 2 CONNECTIONS
E1   7 0  VALUE={V(2,4)/KP*LOG(1+EXP((1/MU+V(3,4)/V(2,4))*KP))}	; E1 BREAKS UP LONG EQUATION FOR G1.
G1   1 4  VALUE={pi/2*(1+GP*V(1,4))*(PWR(V(7),EX)+PWRS(V(7),EX))/KG1*(1-exp(-2*V(1,4)/(pi*KVB)))}
E2   0 8  VALUE={uramp(Up*V(1,4) + Us*V(2,4) + Ug*V(3,4))}
G2   4 2  VALUE ={pwr(V(8),es)*(I0 +(1-I0)*2/3.14159*atan(s * V(1,4)/V(2,4)))/1000 - I(g1)}
RCP  1 4  1G      ; FOR CONVERGENCE	A  - C
C1   3 4  {CCG}   ; CATHODE-GRID 1	C  - G1
C2   1 3  {CPG1}  ; GRID 1-PLATE	G1 - A
C3   1 4  {CCP}   ; CATHODE-PLATE	A  - C
R1   3 5  {RGI}   ; FOR GRID CURRENT	G1 - 5
D3   5 4  DX      ; FOR GRID CURRENT	5  - C
.ENDS PENTODE2a

.SUBCKT PENTODE3a 1 2 3 4 ; A G2 G1 C
RE1  7 0  1MEG    ; DUMMY SO NODE 7 HAS 2 CONNECTIONS
E1   7 0  VALUE={V(2,4)/KP*LOG(1+EXP((1/MU+V(3,4)/V(2,4))*KP))}	; E1 BREAKS UP LONG EQUATION FOR G1.
G1   1 4  VALUE={pi/2*(1+GP*V(1,4))*(PWR(V(7),EX)+PWRS(V(7),EX))/KG1*tanh(2*V(1,4)/(pi*KVB))}
E2   0 8  VALUE={uramp(Up*V(1,4) + Us*V(2,4) + Ug*V(3,4))}
G2   4 2  VALUE ={pwr(V(8),es)*(I0 +(1-I0)*2/3.14159*atan(s * V(1,4)/V(2,4)))/1000 - I(g1)}
RCP  1 4  1G      ; FOR CONVERGENCE	A  - C
C1   3 4  {CCG}   ; CATHODE-GRID 1	C  - G1
C2   1 3  {CPG1}  ; GRID 1-PLATE	G1 - A
C3   1 4  {CCP}   ; CATHODE-PLATE	A  - C
R1   3 5  {RGI}   ; FOR GRID CURRENT	G1 - 5
D3   5 4  DX      ; FOR GRID CURRENT	5  - C
.ENDS PENTODE3a

.SUBCKT PENTODE4a 1 2 3 4 ; A G2 G1 C
RE1  7 0  1MEG    ; DUMMY SO NODE 7 HAS 2 CONNECTIONS
E1   7 0  VALUE={V(2,4)/KP*LOG(1+EXP((1/MU+V(3,4)/V(2,4))*KP))}	; E1 BREAKS UP LONG EQUATION FOR G1.
G1   1 4  VALUE={(1+GP*V(1,4))*(PWR(V(7),EX)+PWRS(V(7),EX))/KG1*(1+cos(pi*(tanh(pwr(V(1,4)/KVB,2))-1 )))/2}
E2   0 8  VALUE={uramp(Up*V(1,4) + Us*V(2,4) + Ug*V(3,4))}
G2   2 4  VALUE ={pwr(V(8),es)*(I0 +(1-I0)*2/3.14159*atan(s * V(1,4)/V(2,4)))/1000 - I(G1)}
RCP  1 4  1G      ; FOR CONVERGENCE	A  - C
C1   3 4  {CCG}   ; CATHODE-GRID 1	C  - G1
C2   1 3  {CPG1}  ; GRID 1-PLATE	G1 - A
C3   1 4  {CCP}   ; CATHODE-PLATE	A  - C
R1   3 5  {RGI}   ; FOR GRID CURRENT	G1 - 5
D3   5 4  DX      ; FOR GRID CURRENT	5  - C
.ENDS PENTODE4a
.MODEL DX D(IS=1N RS=1 CJO=10PF TT=1N) ; diode used by the Triode, Pentode Beam Tetrode models
*********************************************************************



**********************************************************************
* GENERIC: 3CX300
* MODEL:   3CX300
**********************************************************************
.SUBCKT 3CX300 A G K
XV1 A G K TRIODENH
+PARAMS: LIP= 1.5 LIF= 10 RAF= 0.00536 RAS= 1 CDO= 0 
+ RAP= 0.005 ERP= 1.25 
+ MU0= 8.321 MUR= 0.0012 EMC= 0.000533 
+ GCO= 0 GCF= 0.0001 
+ CGA=1.00E-11 CGK=2.50E-11 CAK=1.00E-12
.ENDS

**********************************************************************
* GENERIC: SV6AS7
* MODEL:   SV6AS7
**********************************************************************
.SUBCKT SV6AS7 A G K
XV1 A G K TRIODENH
+PARAMS: LIP= 1 LIF= 0.01 RAF= 0.0058 RAS= 0.7 CDO= 0 
+ RAP= 0.035 ERP= 1.5 
+ MU0= 2.05 MUR= 0.0017 EMC= 0.0005 
+ GCO= 0 GCF= 0 
+ CGA=1.10E-11 CGK=8.00E-12 CAK=3.00E-12
.ENDS

**********************************************************************
* GENERIC: 6BM8 / ECL82
* MODEL:   6BM8
* NOTES:   No grid current model
**********************************************************************
.SUBCKT 6BM8 A G K
XV1 A G K TRIODENH
+PARAMS: LIP= 1.5 LIF= 10 RAF= 0.030667 RAS= 5 CDO=-0.5 
+ RAP= 0.587 ERP= 1.5 
+ MU0= 50 MUR= 0.035 EMC= 0.00000256 
+ GCO= 0 GCF= 0 
+ CGA=4.00E-12 CGK=2.70E-12 CAK=4.00E-12
.ENDS

**********************************************************************
* GENERIC: 6DJ8 / ECC88
* MODEL:   6DJ8
* NOTES:   No grid current model
**********************************************************************
.SUBCKT 6DJ8 A G K
XV1 A G K TRIODENH
+PARAMS: LIP= 1.5 LIF= 10 RAF= 0.09 RAS= 0.2 CDO= 0 
+ RAP= 0 ERP= 1.35 
+ MU0= 33 MUR= 0.02 EMC= 0.0000795 
+ GCO=-0.2 GCF= 0 
+ CGA=1.40E-12 CGK=3.30E-12 CAK=1.80E-12
.ENDS

**********************************************************************
* GENERIC: 6N1P
* MODEL:   6N1P
* NOTES:   No grid current model
**********************************************************************
.SUBCKT 6N1P A G K
XV1 A G K TRIODENH
+PARAMS: LIP= 1.5 LIF= 10 RAF= 0.01 RAS= 1 CDO= 0 
+ RAP= 0 ERP= 1.6 
+ MU0= 37.5 MUR= 0.01 EMC= 0.000005 
+ GCO= 0 GCF= 0 
+ CGA=1.60E-12 CGK=3.20E-12 CAK=1.50E-12
.ENDS

**********************************************************************
* GENERIC: 12AT7 / ECC81
* MODEL:   12AT7
**********************************************************************
.SUBCKT 12AT7 A G K
XV1 A G K TRIODENH
+PARAMS: LIP= 1 LIF= 0.0037 RAF= 0.09869 RAS= 1 CDO=-0.5 
+ RAP= 0.1 ERP= 1.4 
+ MU0= 45.093 MUR= 0.012937 EMC= 0.00000863 
+ GCO=-0.5 GCF= 0.00012 
+ CGA=1.60E-12 CGK=2.30E-12 CAK=4.00E-13
.ENDS

**********************************************************************
* GENERIC: 12AU7 / ECC82
* MODEL:   12AU7

**********************************************************************
.SUBCKT 12AU7 A G K
XV1 A G K TRIODENH
+PARAMS: LIP= 1 LIF= 0.0037 RAF= 0.0041813 RAS= 16.48 CDO= 0 
+ RAP= 0.032 ERP= 1.35 
+ MU0= 14.036 MUR= 0.006488 EMC= 0.0000236 
+ GCO= 0 GCF= 0.00012 
+ CGA=1.60E-12 CGK=1.80E-12 CAK=4.50E-13
.ENDS

**********************************************************************
* GENERIC: 12AX7 / ECC83
* MODEL:   12AX7
**********************************************************************
.SUBCKT 12AX7 A G K
XV1 A G K TRIODENH
+PARAMS: LIP= 1.5 LIF= 0.000016 RAF= 0.076498 RAS= 1 CDO=-0.53056 
+ RAP= 0.18 ERP= 1.5 
+ MU0= 87.302 MUR=-0.013621 EMC= 0.00000111 
+ GCO=-0.2 GCF= 0.00001 
+ CGA=3.90E-12 CGK=2.40E-12 CAK=7.00E-13
.ENDS

**********************************************************************
* GENERIC: 76
* MODEL:   76
* NOTES:   No grid current model
**********************************************************************
.SUBCKT 76 A G K
XV1 A G K TRIODENH
+PARAMS: LIP= 1 LIF= 10 RAF= 0.015 RAS= 1.8 CDO= 0 
+ RAP= 0 ERP= 1.6 
+ MU0= 12.8 MUR= 0.001 EMC= 0.000008 
+ GCO= 0 GCF= 0 
+ CGA=2.80E-12 CGK=3.50E-12 CAK=2.50E-12
.ENDS


**********************************************************************
* GENERIC: SV572-3
* MODEL:   SV5723
**********************************************************************
.SUBCKT SV5723 A G K
XV1 A G K TRIODENH
+PARAMS: LIP= 1 LIF= 0.0018 RAF= 0.0012 RAS= 0.5 CDO= 0 
+ RAP= 0 ERP= 1.4 
+ MU0= 3.79928 MUR= 0.0002 EMC= 0.0000425 
+ GCO= 0 GCF= 0.0000349 
+ CGA=4.00E-12 CGK=4.00E-12 CAK=1.00E-12
.ENDS

**********************************************************************
* GENERIC: SV572-10
* MODEL:   SV57210
* NOTES:   This model is not accurate for Vg >= +60V
**********************************************************************
.SUBCKT SV57210 A G K
XV1 A G K TRIODENH
+PARAMS: LIP= 1.4 LIF= 0.0008 RAF= 0.001 RAS= 1 CDO= 0 
+ RAP=-0.00117 ERP= 1.38 
+ MU0= 10 MUR= 0.0001 EMC= 0.0000272 
+ GCO=-0.2 GCF= 0.0003 
+ CGA=5.00E-12 CGK=6.40E-12 CAK=1.00E-12
.ENDS

**********************************************************************
* GENERIC: 5751
* MODEL:   5751
**********************************************************************
.SUBCKT 5751 A G K
XV1 A G K TRIODENH
+PARAMS: LIP= 1.5 LIF= 0.000016 RAF= 0.075772 RAS= 1 CDO=-0.53056 
+ RAP= 0.131285 ERP= 1.5 
+ MU0= 62.94685 MUR=-0.0111 EMC= 0.00000142 
+ GCO=-0.2 GCF= 0.00001 
+ CGA=1.40E-12 CGK=1.40E-12 CAK=4.50E-13
.ENDS

**********************************************************************
* GENERIC: 12BH7A                                9/96, Rev. 1.0  (fp)
* MODEL: 12BH7A
* AUTHOR: Marshall Leach
* NOTE: No grid current model
**********************************************************************
* This model is valid for the following tubes:
* 12BH7A;
* at the following conditions:
*  Plate voltage  : 0..600V
*  Grid voltage   : 0..-35V
*  Cathode current: 0..50mA
*
*
* Connections: Plate
*              | Grid
*              | | Cathode
*              | | |
.SUBCKT 12BH7A A G K
E1  2  0  VALUE={V(A,K)+16.64*V(G,K)}
R1  2  0  1.0K
Gp  A  K  VALUE={22.34E-6*(PWR(V(2),1.5)+PWRS(V(2),1.5))/2}
Cgk G  K  3.2P
Cgp G  A  2.6P
Cpk A  K  0.5P
.ENDS

**********************************************************************
* This model is valid for the following tubes:
* GL211, VT4C;
* at the following conditions:
*  Plate voltage  :  0..2200V (grid negative),
*                   100..700V (grid positive) (1)
*  Grid voltage   : +50..-180V (2)
*  Cathode current: 0..200mA
*
* (1) Plate current decrease and grid current increase at low plate
*     voltage are not modeled.
* (2) Since no data was available, grid current modeling is only 
*     approximate. Adjust Gg if required.
*
*
* Connections: Plate
*              | Grid
*              | | Cathode
*              | | |
.SUBCKT GL211  A G K
E1  2  0  VALUE={V(A,K)+12.11*V(G,K)}
R1  2  0  1.0K
Gp  A  K  VALUE={9.39E-6*(PWR(V(2),1.5)+PWRS(V(2),1.5))/2}
Gg  G  K  VALUE={358E-6*(PWR(V(G,K),1.5)+PWRS(V(G,K),1.5))/2}
Cgk G  K  6.0P
Cga G  A  14.5P
Cak A  K  5.5P
.ENDS 

********************************************************************** 
* GENERIC: 845                               11/2005
* MODEL: 845RCA                      
* AUTHOR: Kevin Kennedy
* INCLUDES GRID CURRENT MODEL
**********************************************************************
* This model is an approximation of 845 behavior based on 211GL model
* by Marshall Leach?
* Connections:  Plate
*               | Grid
*               | | Cathode
*               | | |
.SUBCKT 845RCA  A G K
E1  2  0  VALUE={V(A,K)+5.355*V(G,K)}
R1  2  0  1.0K
Gp  A  K  VALUE={9.39E-6*(PWR(V(2),1.5)+PWRS(V(2),1.5))/2}
D3  3  K DX     ; sleezy grid current model
R2  G  3 {1.0K}  ; sleezy grid current model
Cgk G  K  6.0P
Cga G  A  13.5P
Cak A  K  6.5P
Rak A  K  1G
Rgk G  K  1G
.MODEL DX D(IS=1N RS=1)
.ENDS

************************************************************************
* Andrei's tube models library 
* 
* Copyright (C) 2001 Andrei Frolov <andrei@phys.ualberta.ca>
* Distributed under the terms of GNU Public License.
* 
* Based on the models and ideas of many people; see in particular
*   - Norman Koren pages <http://www.normankoren.com/Audio/>
*   - Duncan Munro pages <http://www.duncanamps.com>
*   - Spice models survey by Stefano Perugini
*       <http://digilander.iol.it/paeng/spice_models.htm>
*   - Vacuum tube parameter identification by Mithat F. Konar
*       <http://www.birotechnology.com/articles/VTspice.html>
* 

******************* Vacuum Diode Models ********************************

* 3DG4  -  DH full-wave power rectifier (350mA)
* Data from GE 3DG4 datasheet - traced on 10-11-01 by AF
.subckt 3DG4  A K
* Child-Langmuir law: mean fit error 3.52662 mA
*   Bp  A K  I=(2.698962402m)*uramp(V(A,K))**1.5
* Child-Langmuir law with contact potential: mean fit error 2.22284 mA
    Bp  A K  I=(2.733421052m)*uramp(V(A,K)+(-0.3709046687))**1.5
* Perugini model: mean fit error 2.21657 mA
*   Bp  A K  I=((2.604459133m)+(-0.0005396471359m)*V(A,K))*uramp(V(A,K)+(-0.2400294538))**(1.514047938)
.ends 3DG4


* 5AR4  -  IDH full-wave power rectifier (250mA)
* Data from GE 5AR4 datasheet - traced on 10-11-01 by AF
.subckt 5AR4  A K
* Child-Langmuir law: mean fit error 3.57654 mA
*   Bp  A K  I=(3.241174316m)*uramp(V(A,K))**1.5
* Child-Langmuir law with contact potential: mean fit error 3.48688 mA
    Bp  A K  I=(3.257047182m)*uramp(V(A,K)+(-0.1046690061))**1.5
* Perugini model: mean fit error 0.685736 mA
*   Bp  A K  I=((1.801056955m)+(-0.009848868441m)*V(A,K))*uramp(V(A,K)+(0.5667044198))**(1.718422381)
.ends 5AR4


* GZ34  -  IDH full-wave power rectifier (250mA)
* Data from Philips GZ34 datasheet - traced on 10-11-01 by AF
.subckt GZ34  A K
* Child-Langmuir law: mean fit error 5.32372 mA
*   Bp  A K  I=(3.968200684m)*uramp(V(A,K))**1.5
* Child-Langmuir law with contact potential: mean fit error 4.64243 mA
    Bp  A K  I=(4.050621191m)*uramp(V(A,K)+(-0.3522660485))**1.5
* Perugini model: mean fit error 1.81874 mA
*   Bp  A K  I=((1.770910894m)+(-0.002635208504m)*V(A,K))*uramp(V(A,K)+(1.90184266))**(1.721344738)
.ends GZ34


* 5AU4  -  DH full-wave power rectifier (325mA)
* Data from GE 5AU4 datasheet - traced on 10-11-01 by AF
.subckt 5AU4  A K
* Child-Langmuir law: mean fit error 2.91988 mA
*   Bp  A K  I=(0.9904121399m)*uramp(V(A,K))**1.5
* Child-Langmuir law with contact potential: mean fit error 2.03865 mA
    Bp  A K  I=(1.001318345m)*uramp(V(A,K)+(-0.5914399553))**1.5
* Perugini model: mean fit error 1.39243 mA
*   Bp  A K  I=((1.243495938m)+(0.001247697537m)*V(A,K))*uramp(V(A,K)+(-0.8353102945))**(1.43333432)
.ends 5AU4


* 5V3  -  DH full-wave power rectifier (350mA)
* Data from GE 5V3 datasheet - traced on 08-09-01 by AF
.subckt 5V3  A K
* Child-Langmuir law: mean fit error 4.98363 mA
*   Bp  A K  I=(1.085098267m)*uramp(V(A,K))**1.5
* Child-Langmuir law with contact potential: mean fit error 4.57773 mA
    Bp  A K  I=(1.093537823m)*uramp(V(A,K)+(-0.4353512857))**1.5
* Perugini model: mean fit error 2.33562 mA
*   Bp  A K  I=((0.9707914136m)+(-0.0009299376857m)*V(A,K))*uramp(V(A,K)+(-1.077144669))**(1.549894427)
.ends 5V3


* 5U4  -  DH full-wave power rectifier (275mA)
* Data from GE 5U4GB datasheet - traced on 08-09-01 by AF
.subckt 5U4  A K
* Child-Langmuir law: mean fit error 2.37547 mA
*   Bp  A K  I=(0.7784729004m)*uramp(V(A,K))**1.5
* Child-Langmuir law with contact potential: mean fit error 0.949764 mA
    Bp  A K  I=(0.787802982m)*uramp(V(A,K)+(-0.6644060839))**1.5
* Perugini model: mean fit error 0.844211 mA
*   Bp  A K  I=((0.6623814366m)+(-0.0002767670064m)*V(A,K))*uramp(V(A,K)+(-0.07623613033))**(1.545073678)
.ends 5U4


* 5V4  -  IDH full-wave power rectifier (175mA)
* Data from GE 5V4GA datasheet - traced on 09-09-01 by AF
.subckt 5V4  A K
* Child-Langmuir law: mean fit error 1.39637 mA
*   Bp  A K  I=(1.393901825m)*uramp(V(A,K))**1.5
* Child-Langmuir law with contact potential: mean fit error 1.20084 mA
    Bp  A K  I=(1.404180087m)*uramp(V(A,K)+(-0.1877759095))**1.5
* Perugini model: mean fit error 0.948085 mA
*   Bp  A K  I=((1.324187528m)+(0.0007522446486m)*V(A,K))*uramp(V(A,K)+(0.1960102559))**(1.505493163)
.ends 5V4


* 5Y3  -  DH full-wave power rectifier (125mA)
* Data from GE 5Y3GT datasheet - traced on 09-09-01 by AF
.subckt 5Y3  A K
* Child-Langmuir law: mean fit error 1.15597 mA
*   Bp  A K  I=(0.3533050537m)*uramp(V(A,K))**1.5
* Child-Langmuir law with contact potential: mean fit error 0.958542 mA
    Bp  A K  I=(0.3560945008m)*uramp(V(A,K)+(-0.4420163009))**1.5
* Perugini model: mean fit error 0.656689 mA
*   Bp  A K  I=((0.3169037014m)+(5.675621737e-05m)*V(A,K))*uramp(V(A,K)+(0.6363978284))**(1.51803242)
.ends 5Y3


* 274B  -  DH full-wave power rectifier (225mA)
* Data from WE 274B datasheet - traced on 30-09-01 by AF
.subckt 274B  A K
* Child-Langmuir law: mean fit error 1.17132 mA
*   Bp  A K  I=(0.3503318812m)*uramp(V(A,K))**1.5
* Child-Langmuir law with contact potential: mean fit error 0.983373 mA
    Bp  A K  I=(0.3458749385m)*uramp(V(A,K)+(0.539276053))**1.5
* Perugini model: mean fit error 0.393065 mA
*   Bp  A K  I=((0.368828156m)+(-0.0003153165025m)*V(A,K))*uramp(V(A,K)+(-0.6317505224))**(1.505633947)
.ends 274B


* 6X5  -  IDH full-wave power rectifier (70mA)
* Data from GE 6X5GT datasheet - traced on 09-09-01 by AF
.subckt 6X5  A K
* Child-Langmuir law: mean fit error 0.829063 mA
*   Bp  A K  I=(0.6876983643m)*uramp(V(A,K))**1.5
* Child-Langmuir law with contact potential: mean fit error 0.666578 mA
    Bp  A K  I=(0.6965588691m)*uramp(V(A,K)+(-0.2713646197))**1.5
* Perugini model: mean fit error 0.350721 mA
*   Bp  A K  I=((0.3658726552m)+(-0.0008687929442m)*V(A,K))*uramp(V(A,K)+(1.384235957))**(1.683868589)
.ends 6X5


* 6X4  -  IDH full-wave miniature power rectifier (70mA) (this is essentially 6X5 in 7-pin base)
* Data from GE 6X4 datasheet - traced on 09-09-01 by AF
.subckt 6X4  A K
* Child-Langmuir law: mean fit error 1.10646 mA
*   Bp  A K  I=(0.6787719727m)*uramp(V(A,K))**1.5
* Child-Langmuir law with contact potential: mean fit error 0.603786 mA
    Bp  A K  I=(0.6955865558m)*uramp(V(A,K)+(-0.5138012527))**1.5
* Perugini model: mean fit error 0.372965 mA
*   Bp  A K  I=((0.4819803969m)+(-0.001701085314m)*V(A,K))*uramp(V(A,K)+(-0.06370839623))**(1.636154216)
.ends 6X4


* 6CA4  -  IDH full-wave miniature power rectifier (150mA)
* Data from GE 6CA4 datasheet - traced on 13-03-02 by AF
.subckt 6CA4  A K
* Child-Langmuir law: mean fit error 0.585402 mA
*   Bp  A K  I=(1.672480011m)*uramp(V(A,K))**1.5
* Child-Langmuir law with contact potential: mean fit error 0.352346 mA
    Bp  A K  I=(1.68085724m)*uramp(V(A,K)+(-0.1132675647))**1.5
* Perugini model: mean fit error 0.349954 mA
*   Bp  A K  I=((1.673471733m)+(-0.0001489801373m)*V(A,K))*uramp(V(A,K)+(-0.1167055168))**(1.502190772)
.ends 6CA4


* EZ81  -  IDH full-wave power rectifier (150mA)
* Data from Philips EZ81 datasheet - traced on 10-11-01 by AF
.subckt EZ81  A K
* Child-Langmuir law: mean fit error 3.98557 mA
*   Bp  A K  I=(1.703564453m)*uramp(V(A,K))**1.5
* Child-Langmuir law with contact potential: mean fit error 3.06551 mA
    Bp  A K  I=(1.616914135m)*uramp(V(A,K)+(0.8508860213))**1.5
* Perugini model: mean fit error 1.36344 mA
*   Bp  A K  I=((3.069306816m)+(0.1206292787m)*V(A,K))*uramp(V(A,K)+(1.116202179))**(1.087711051)
.ends EZ81


* EZ80  -  IDH full-wave power rectifier (90mA)
* Data from Philips EZ80 datasheet - traced on 10-11-01 by AF
.subckt EZ80  A K
* Child-Langmuir law: mean fit error 1.07583 mA
*   Bp  A K  I=(0.7265075684m)*uramp(V(A,K))**1.5
* Child-Langmuir law with contact potential: mean fit error 0.805197 mA
    Bp  A K  I=(0.7527537983m)*uramp(V(A,K)+(-0.553916594))**1.5
* Perugini model: mean fit error 0.279904 mA
*   Bp  A K  I=((0.08550573077m)+(-0.000848630625m)*V(A,K))*uramp(V(A,K)+(3.586198141))**(2.164324675)
.ends EZ80



******************* Vacuum Triode Models *******************************

* 26  -  DH power amplifier low-mu Bp  A K  I=(m)*uramp(()*V(G,K)+V(A,K))**1.5 (filament: AC/DC 1.5V 1.05A)
* From RCA 26 datasheet - traced on 28-11-01 by AF
.subckt 26  A G K
    Cgp G A  8.1p
    Ci  G K  2.8p
    Co  A K  2.5p
* Child-Langmuir law: mean fit error 0.195637 mA
*   Bp  A K  I=(0.01096792961m)*uramp((8.01146955)*V(G,K)+V(A,K))**1.5
* Child-Langmuir law with contact potential: mean fit error 0.155271 mA
*   Bp  A K  I=(0.01015450934m)*uramp((8.112832325)*V(G,K)+V(A,K)+(4.432553413))**1.5
* Rydel model (4 parameters): mean fit error 0.122908 mA
*   Bp  A K  I=((0.0107842298m)+(8.627435956e-05m)*V(G,K))*uramp((7.7878004)*V(G,K)+V(A,K)+(1.816064405))**1.5
* Rydel model (5 parameters): mean fit error 0.122157 mA
*   Bp  A K  I=((0.0107444659m)+(8.597805975e-05m)*V(G,K))*uramp((7.753423216)*V(G,K)+V(A,K)+(1.047159959))**1.5 * V(A,K)/(V(A,K)+(-1.566406691))
* Koren model (4 parameters): mean fit error 0.0980838 mA
*   Bp  A K  I=(0.01598648998m)*uramp(V(A,K)*ln(1.0+exp((11.34306022)+(11.34306022)*(8.229713305)*V(G,K)/V(A,K)))/(11.34306022))**(1.418284253)
* Koren model (5 parameters): mean fit error 0.0894751 mA
    Bp  A K  I=(0.01409182929m)*uramp(V(A,K)*ln(1.0+exp((10.7417044)+(10.7417044)*(8.264015369)*V(G,K)/sqrt((0.4130891165k)+V(A,K)**2)))/(10.7417044))**(1.446260172)
* Modified Koren model (6 parameters): mean fit error 0.0939752 mA
*   Bp  A K  I=(0.01544284649m)*uramp(V(A,K)*ln(1.0+(0.1798504701)+exp((11.67230465)+(11.67230465)*((8.151623032)+(-4.01015157m)*V(G,K))*V(G,K)/V(A,K)))/(11.67230465))**(1.425533218)
* Modified Koren model (8 parameters): mean fit error 0.0913151 mA
*   Bp  A K  I=(0.01460921873m)*uramp(V(A,K)*ln(1.0+(0.04739664922)+exp((10.67436405)+(10.67436405)*((8.270072402)+(-2.475361714m)*V(G,K))*V(G,K)/sqrt((1.135104222)**2+(V(A,K)-(-2.016161089))**2)))/(10.67436405))**(1.437995601)
.ends 26


* 30  -  DH low-mu Bp  A K  I=(m)*uramp(()*V(G,K)+V(A,K))**1.5 for battery powered amplifiers (filament: DC 2.0V 60mA)
* From RCA 30 datasheet - traced on 17-11-01 by AF
.subckt 30  A G K
    Cgp G A  6.0p
    Ci  G K  3.0p
    Co  A K  2.1p
* Child-Langmuir law: mean fit error 0.156788 mA
*   Bp  A K  I=(0.00833043584m)*uramp((9.419983191)*V(G,K)+V(A,K))**1.5
* Child-Langmuir law with contact potential: mean fit error 0.125115 mA
*   Bp  A K  I=(0.008920617735m)*uramp((9.325266529)*V(G,K)+V(A,K)+(-4.347367289))**1.5
* Rydel model (4 parameters): mean fit error 0.0998485 mA
*   Bp  A K  I=((0.009329224392m)+(5.518063362e-05m)*V(G,K))*uramp((9.09982614)*V(G,K)+V(A,K)+(-6.302386745))**1.5
* Rydel model (5 parameters): mean fit error 0.0998516 mA
*   Bp  A K  I=((0.009341127626m)+(5.580307852e-05m)*V(G,K))*uramp((9.102118777)*V(G,K)+V(A,K)+(-6.209886474))**1.5 * V(A,K)/(V(A,K)+(0.2979850758))* Koren model (4 parameters): mean fit error 0.0821472 mA
*   Bp  A K  I=(0.004809335611m)*uramp(V(A,K)*ln(1.0+exp((22.93020855)+(22.93020855)*(9.354375304)*V(G,K)/V(A,K)))/(22.93020855))**(1.62140495)
* Koren model (5 parameters): mean fit error 0.0811884 mA
*   Bp  A K  I=(0.005023043043m)*uramp(V(A,K)*ln(1.0+exp((23.24749852)+(23.24749852)*(9.349305398)*V(G,K)/sqrt((-0.1823630153k)+V(A,K)**2)))/(23.24749852))**(1.612295919)
* Modified Koren model (6 parameters): mean fit error 0.0817216 mA
*   Bp  A K  I=(0.004815300289m)*uramp(V(A,K)*ln(1.0+(1.273000886)+exp((33.75729989)+(33.75729989)*((9.3590051)+(0.5224315236m)*V(G,K))*V(G,K)/V(A,K)))/(33.75729989))**(1.621097037)
* Modified Koren model (8 parameters): mean fit error 0.079354 mA
    Bp  A K  I=(0.005172475599m)*uramp(V(A,K)*ln(1.0+(1.407577311)+exp((33.16170736)+(33.16170736)*((9.156903373)+(-3.598975834m)*V(G,K))*V(G,K)/sqrt((-2.710729473)**2+(V(A,K)-(3.305398267))**2)))/(33.16170736))**(1.605637741)
.ends 30


* 31  -  DH low-mu Bp  A K  I=(m)*uramp(()*V(G,K)+V(A,K))**1.5 for battery powered amplifiers (filament: DC 2.0V 130mA)
* From RCA 31 datasheet - traced on 02-03-02 by AF
.subckt 31  A G K
    Cgp G A  5.7p
    Ci  G K  3.5p
    Co  A K  2.7p
* Child-Langmuir law: mean fit error 0.320425 mA
*   Bp  A K  I=(0.02205745359m)*uramp((3.713620315)*V(G,K)+V(A,K))**1.5
* Child-Langmuir law with contact potential: mean fit error 0.3198 mA
*   Bp  A K  I=(0.02193490101m)*uramp((3.718582542)*V(G,K)+V(A,K)+(0.3621299162))**1.5
* Rydel model (4 parameters): mean fit error 0.258413 mA
*   Bp  A K  I=((0.02297244575m)+(7.669016122e-05m)*V(G,K))*uramp((3.596397776)*V(G,K)+V(A,K)+(-1.535154948))**1.5
* Rydel model (5 parameters): mean fit error 0.256474 mA