Version 4
SHEET 1 880 680
TEXT -56 48 Left 2 !*Homework1*\nVs 1 0 DC 200\nL1 2 3 200u\nC1 3 0 25u\nR1 3 0 20\nD1 0 2 DSCH\nSW1 1 2 10 0 SW\n \nVCTRL 10 0 PULSE(0V 5V 0 0.01US 0.01US {P} 20US)\n*R10            10              0               1MEG\n.model DSCH D( IS=0.0002 RS=0.05 CJO=5e-10  )\n.model SW VSWITCH(VON=0.1V VOFF=0V RON=0.001 ROFF=100MEG)\n \n;.TRAN 0 10m\n;.Probe\n;.End
TEXT -48 8 Left 2 !.param VCC=200V Vout=72 V0=0.38V T=20us P={Vout/(Vcc-V0)*T}
TEXT -56 488 Left 2 !.tran 10m
TEXT -64 544 Left 3 !.meas Vout avg V(3) from 9m to 10m
TEXT -56 584 Left 3 ;vout: AVG(v(3))=72.0616 FROM 0.009 TO 0.01
