Version 4
SHEET 1 1412 708
WIRE 64 -304 48 -304
WIRE 352 -304 336 -304
WIRE 640 -304 624 -304
WIRE 928 -304 912 -304
WIRE 976 -288 960 -288
WIRE 1088 -288 1072 -288
WIRE 1120 -288 1104 -288
WIRE 1232 -288 1216 -288
WIRE 1264 -288 1248 -288
WIRE 1392 -288 1376 -288
WIRE 64 -128 48 -128
WIRE 352 -128 336 -128
WIRE 640 -128 624 -128
WIRE 928 -128 912 -128
WIRE 976 -128 960 -128
WIRE 1088 -128 1072 -128
WIRE 1120 -128 1104 -128
WIRE 1232 -128 1216 -128
WIRE 1264 -128 1248 -128
WIRE 1392 -128 1376 -128
WIRE -112 64 -128 64
WIRE 0 64 -16 64
WIRE 32 64 16 64
WIRE 144 64 128 64
WIRE 176 64 160 64
WIRE 288 64 272 64
WIRE 320 64 304 64
WIRE 432 64 416 64
WIRE 464 64 448 64
WIRE 576 64 560 64
WIRE 608 64 592 64
WIRE 720 64 704 64
WIRE 752 64 736 64
WIRE 896 64 880 64
WIRE 928 64 912 64
WIRE 1056 64 1040 64
WIRE 1088 64 1072 64
WIRE 1216 64 1200 64
WIRE 1248 64 1232 64
WIRE 1376 64 1360 64
WIRE -112 208 -128 208
WIRE 0 208 -16 208
WIRE 32 208 16 208
WIRE 144 208 128 208
WIRE 176 208 160 208
WIRE 288 208 272 208
WIRE 320 208 304 208
WIRE 432 208 416 208
WIRE 464 208 448 208
WIRE 576 208 560 208
WIRE 608 208 592 208
WIRE 720 208 704 208
WIRE 752 208 736 208
WIRE 896 208 880 208
WIRE 928 208 912 208
WIRE 1056 208 1040 208
WIRE 1088 208 1072 208
WIRE 1216 208 1200 208
WIRE 1248 208 1232 208
WIRE 1376 208 1360 208
WIRE 128 368 112 368
WIRE 240 368 224 368
WIRE 272 368 256 368
WIRE 384 368 368 368
WIRE 416 368 400 368
WIRE 528 368 512 368
WIRE 592 368 576 368
WIRE 704 368 688 368
WIRE 752 368 736 368
WIRE 864 368 848 368
WIRE 928 368 912 368
WIRE 1056 368 1040 368
WIRE 1088 368 1072 368
WIRE 1216 368 1200 368
WIRE 1248 368 1232 368
WIRE 1376 368 1360 368
WIRE -64 464 -80 464
WIRE -16 464 -32 464
WIRE 16 464 0 464
WIRE 64 464 48 464
WIRE -48 496 -48 480
WIRE 32 496 32 480
WIRE -64 544 -80 544
WIRE -16 544 -32 544
WIRE 16 544 0 544
WIRE 64 544 48 544
WIRE 128 544 112 544
WIRE 240 544 224 544
WIRE 272 544 256 544
WIRE 384 544 368 544
WIRE 416 544 400 544
WIRE 528 544 512 544
WIRE 592 544 576 544
WIRE 704 544 688 544
WIRE 752 544 736 544
WIRE 864 544 848 544
WIRE 928 544 912 544
WIRE 1056 544 1040 544
WIRE 1088 544 1072 544
WIRE 1216 544 1200 544
WIRE 1248 544 1232 544
WIRE 1376 544 1360 544
WIRE -48 576 -48 560
WIRE 32 576 32 560
SYMBOL amp 1024 -288 R0
SYMATTR InstName U1
SYMBOL ampinv 1168 -288 R0
SYMATTR InstName U2
SYMBOL ampinv2 1312 -288 R0
SYMATTR InstName U3
SYMBOL ampinv2_ 1328 -128 R0
SYMATTR InstName U4
SYMBOL ampinv_ 1168 -128 R0
SYMATTR InstName U5
SYMBOL amp_ 1024 -128 R0
SYMATTR InstName U6
SYMBOL const 0 336 R0
WINDOW 3 18 0 Right 0
SYMATTR InstName U7
SYMBOL sum -16 464 R0
SYMATTR InstName U8
SYMBOL sum_ 64 464 R0
SYMATTR InstName U9
SYMBOL subtr -16 544 R0
SYMATTR InstName U10
SYMBOL subtr_ 64 544 R0
SYMATTR InstName U11
SYMBOL dif 224 64 R0
SYMATTR InstName U12
SYMBOL dif_ 224 208 R0
SYMATTR InstName U13
SYMBOL dif2 -64 64 R0
SYMATTR InstName U14
SYMBOL dif2_ -64 208 R0
SYMATTR InstName U15
SYMBOL int 368 64 R0
SYMATTR InstName U16
SYMBOL int_ 368 208 R0
SYMATTR InstName U17
SYMBOL int2 80 64 R0
SYMATTR InstName U18
SYMBOL int2_ 80 208 R0
SYMATTR InstName U19
SYMBOL intdelay 512 64 R0
SYMATTR InstName U20
SYMBOL intdelay_ 512 208 R0
SYMATTR InstName U21
SYMBOL genSin 32 -272 R0
SYMATTR InstName U22
SYMBOL genPulse 304 -320 R0
SYMATTR InstName U23
SYMBOL genLine 592 -320 R0
SYMATTR InstName U24
SYMBOL genTrap 880 -320 R0
SYMATTR InstName U25
SYMBOL limit 176 368 R0
SYMATTR InstName U26
SYMBOL limit_ 176 544 R0
SYMATTR InstName U27
SYMBOL difDelay 656 64 R0
SYMATTR SpiceModel IntDelay
SYMATTR InstName U32
SYMBOL difDelay_ 656 208 R0
SYMATTR InstName U33
SYMBOL const_ -16 400 R0
WINDOW 3 -14 0 Left 0
SYMATTR InstName U34
SYMBOL osc 800 64 R0
SYMATTR InstName U35
SYMBOL osc_ 800 208 R0
SYMATTR InstName U36
SYMBOL gensinA 32 -96 R0
SYMATTR InstName U37
SYMBOL genPulseB 304 -144 R0
SYMATTR InstName U38
SYMBOL genTrapB 880 -144 R0
WINDOW 3 -91 -47 Center 0
SYMATTR InstName U40
SYMBOL genlineb 592 -144 R0
SYMATTR InstName U39
SYMBOL lap2 1296 64 R0
SYMATTR InstName U41
SYMBOL lap2_ 1296 208 R0
SYMATTR InstName U42
SYMBOL lap 976 64 R0
SYMATTR InstName U43
SYMBOL lap_ 976 208 R0
SYMATTR InstName U44
SYMBOL lap1 1136 64 R0
SYMATTR InstName U45
SYMBOL lap1_ 1136 208 R0
SYMATTR InstName U46
SYMBOL dead 320 368 R0
SYMATTR InstName U47
SYMBOL dead_ 320 544 R0
SYMATTR InstName U48
SYMBOL deadB 464 368 R0
SYMATTR InstName U49
SYMBOL deadB_ 464 544 R0
SYMATTR InstName U50
SYMBOL func 976 368 R0
SYMATTR InstName U51
SYMBOL func_ 976 544 R0
SYMATTR InstName U52
SYMBOL func1_ 1136 544 R0
SYMATTR InstName U54
SYMBOL func2 1296 368 R0
SYMATTR InstName U55
SYMBOL func2_ 1296 544 R0
SYMATTR InstName U56
SYMBOL func1 1136 368 R0
SYMATTR InstName U53
SYMBOL hyster 640 368 R0
SYMATTR SpiceModel hister
SYMATTR InstName U28
SYMBOL hysterB 800 368 R0
SYMATTR SpiceModel histerB
SYMATTR InstName U29
SYMBOL hyster_ 640 544 R0
SYMATTR InstName U30
SYMBOL hysterB_ 800 544 R0
SYMATTR SpiceModel histerB
SYMATTR InstName U31
