Version 4
SHEET 1 880 680
WIRE 464 112 432 112
WIRE 64 144 -16 144
WIRE 464 176 432 176
WIRE 64 208 -16 208
FLAG 464 112 R
FLAG 464 176 C
FLAG 64 80 0
SYMBOL SpecialFunctions\\capmeterAB 144 112 R0
SYMATTR InstName U1
SYMBOL cap -32 144 R0
WINDOW 39 1 85 Left 2
SYMATTR InstName C1
SYMATTR Value 100n
SYMATTR SpiceLine Rser=100m
TEXT -34 284 Left 2 !.tran 1m
