*FDD5690 at Temp. Electrical Model
*-------------------------------------
.SUBCKT FDD5690 20 10 30 50
*20=DRAIN 10=GATE 30=SOURCE 50=VTEMP
Rg 10 11x 1
Rdu 12x 1 1u
M1 2 1 4x 4x DMOS L=1u W=1u
.MODEL DMOS NMOS(VTO=3.15 KP=52.6
+THETA=.066667 VMAX=1.75E5 LEVEL=3)
Cgs 1 5x 1050p
Rd 20 4 7.8E-3 
Dds 5x 4 DDS
.MODEL DDS D(M=4.99E-1 VJ=7.5E-1 CJO=502p)
Dbody 5x 20 DBODY
.MODEL DBODY D(IS=3.24E-11 N=1.175226 RS=.00034 TT=12.75n)
Ra 4 2 7.8E-3 
Rs 5x 5 0.5m
Ls 5 30 0.5n
M2 1 8 6 6 INTER
E2 8 6 4 1 2
.MODEL INTER NMOS(VTO=0 KP=10 LEVEL=1)
Cgdmax 7 4 940p
Rcgd 7 4 10meg
Dgd 6 4 DGD
Rdgd 6 4 10meg
.MODEL DGD D(M=5.5E-1 VJ=6.28E-2 CJO=940p)
M3 7 9 1 1 INTER
E3 9 1 4 1 -2
*ZX SECTION
EOUT 4x 6x poly(2) (1x,0) (3x,0) 0 0 0 0 1
FCOPY 0 3x VSENSE 1
RIN 1x 0 1G
VSENSE 6x 5x 0
RREF 3x 0 10m
*TEMP SECTION
ED 101 0 VALUE {V(50,100)}
VAMB 100 0 25
EKP 1x 0 101 0 .0155
*VTO TEMP SECTION
EVTO 102 0 101 0 .0042
EVT 12x 11x 102 0 1
*DIODE THEMO BREAKDOWN SECTION
EBL VB1 VB2 101 0 .08
VBLK VB2 0 60
D 20 DB1 DBLK
.MODEL DBLK D(IS=1E-14 CJO=.1p RS=.1)
EDB DB1 0 VB1 0 1
.ENDS FDD5690
*FDD5690 (Rev.B1) 5/14/02 **ST
