*FDD5670_ELECTRICAL MODEL
*-------------------------------------
.SUBCKT FDD5670 20 10 30
*20=DRAIN 10=GATE 30=SOURCE
Rg 10 1 1
M1 2 1 3 3 DMOS L=1u W=1u
.MODEL DMOS NMOS(VTO={2*{-2.29E-3*{TEMP-27}+1.525}} KP={-0.44*{TEMP-27}+144}
+THETA=0.066667 VMAX=0.7E5 LEVEL=3)
Cgs 1 3 2884p
Rd 20 4 5E-4 TC=0.006
Dds 3 4 DDS
.MODEL DDS D(BV={60+5.8E-2*{TEMP-27}} M=6.21E-1 VJ=1.42E+1 CJO=816p)
Dbody 3 20 DBODY
.MODEL DBODY D(IS=1.82E-12 N=1.010376 RS=0.000233 TT=100n)
Ra 4 2 5E-4 TC=0.006
Rs 3 5 0.5m
Ls 5 30 0.5n
M2 1 8 6 6 INTER
E2 8 6 4 1 2
.MODEL INTER NMOS(VTO=0 KP=10 LEVEL=1)
Cgdmax 7 4 1635p
Rcgd 7 4 10meg
Dgd 6 4 DGD
Rdgd 4 6 10meg
.MODEL DGD D(M=3.58E-1 VJ=3.03E-2 CJO=1635p)
M3 7 9 1 1 INTER
E3 9 1 4 1 -2
.ENDS FDD5670
*ST-5/24/00 (Data incompleted)
*