*FDD5612 at Temp. Electrical Model
*-------------------------------------
.SUBCKT FDD5612 20 10 30 50
*20=DRAIN 10=GATE 30=SOURCE 50=VTEMP
Rg 10 11X 1
Rdu 12x 1 1u
M1 2 1 4x 4x DMOS L=1u W=1u
.MODEL DMOS NMOS(VTO=2.9 KP=31.8
+THETA=.066666667 VMAX=1E5 LEVEL=3)
Cgs 1 5x 650p  
Rd 20 4 1.4E-2 
Dds 5x 4 DDS
.MODEL DDS D( M=4.95E-1 VJ=9.25E-1 CJO=278p)
Dbody 5x 20 DBODY
.MODEL DBODY D(IS=2.88296E-11 N=1.199963855 RS=.00063995 TT=10.27n)
Ra 4 2 1.4E-2 
Rs 5x 5 0.5m
Ls 5 30 0.5n
M2 1 8 6 6 INTER
E2 8 6 4 1 2
.MODEL INTER NMOS(VTO=0 KP=10 LEVEL=1)
Cgdmax 7 4 500p
Rcgd 7 4 10meg
Dgd 6 4 DGD
Rdgd 6 4 10meg
.MODEL DGD D(M=3.52E-1 VJ=1.56E-2 CJO=500p)
M3 7 9 1 1 INTER
E3 9 1 4 1 -2
*ZX SECTION
EOUT 4x 6x poly(2) (1x,0) (3x,0) 0 0 0 0 1
FCOPY 0 3x VSENSE 1
RIN 1x 0 1G
VSENSE 6x 5x 0
RREF 3x 0 10m
*TEMP SECTION
ED 101 0 VALUE {V(50,100)}
VAMB 100 0 25
EKP 1x 0 101 0 .027
*VTO TEMP SECTION
EVTO 102 0 101 0 .006
EVT 12x 11x 102 0 1
*DIODE THEMO BREAKDOWN SECTION
EBL VB1 VB2 101 0 .08
VBLK VB2 0 60
D 20 DB1 DBLK
.MODEL DBLK D(IS=1E-14 CJO=.1p RS=.1)
EDB DB1 0 VB1 0 1
.ENDS FDD5612
*FDD5612 (Rev.A1) 5/15/02 **ST