Version 4
SymbolType CELL
LINE Normal -64 -64 -80 -64
LINE Normal -70 -70 -64 -64
LINE Normal -70 -58 -64 -64
LINE Normal -64 0 -80 0
LINE Normal -64 64 -80 64
LINE Normal 0 128 0 144
LINE Normal 64 64 80 64
LINE Normal 64 0 80 0
LINE Normal 64 -64 80 -64
LINE Normal -70 -6 -64 0
LINE Normal -70 6 -64 0
LINE Normal -70 58 -64 64
LINE Normal -70 70 -64 64
LINE Normal -6 134 0 128
LINE Normal 0 128 6 134
RECTANGLE Normal 64 128 -64 -128
WINDOW 0 0 -144 Center 2
WINDOW 39 0 -104 Center 2
SYMATTR SpiceLine TF=
SYMATTR Value ABC-DQO
SYMATTR Description ABC to DQO Transformation Block
SYMATTR Prefix X
SYMATTR SpiceModel abc-dqo
SYMATTR ModelFile ..\sym\ValVol\fblocks.lib
PIN -80 -64 LEFT 24
PINATTR PinName A
PINATTR SpiceOrder 1
PIN -80 0 LEFT 24
PINATTR PinName B
PINATTR SpiceOrder 2
PIN -80 64 LEFT 24
PINATTR PinName C
PINATTR SpiceOrder 3
PIN 0 144 BOTTOM 24
PINATTR PinName Theta
PINATTR SpiceOrder 4
PIN 80 -64 RIGHT 24
PINATTR PinName D
PINATTR SpiceOrder 5
PIN 80 0 RIGHT 24
PINATTR PinName Q
PINATTR SpiceOrder 6
PIN 80 64 RIGHT 24
PINATTR PinName O
PINATTR SpiceOrder 7
