Version 4
SymbolType CELL
LINE Normal -48 -64 -64 -64
LINE Normal -54 -70 -48 -64
LINE Normal -54 -58 -48 -64
LINE Normal -48 0 -64 0
LINE Normal 48 -32 64 -32
LINE Normal -54 -6 -48 0
LINE Normal -54 6 -48 0
RECTANGLE Normal 48 16 -48 -80
TEXT 0 -32 Center 2 atan2
WINDOW 0 0 -96 Center 2
SYMATTR Description Arctangent 2 function block
SYMATTR Prefix X
SYMATTR SpiceModel atan2r
SYMATTR ModelFile ..\sym\ValVol\fblocks.lib
PIN -64 -64 BOTTOM 10
PINATTR PinName y
PINATTR SpiceOrder 1
PIN -64 0 TOP 5
PINATTR PinName x
PINATTR SpiceOrder 2
PIN 64 -32 BOTTOM 5
PINATTR PinName r
PINATTR SpiceOrder 3
