Version 4
SymbolType CELL
LINE Normal -64 -96 -80 -96
LINE Normal -70 -102 -64 -96
LINE Normal -70 -90 -64 -96
LINE Normal 64 -96 80 -96
RECTANGLE Normal 64 -64 -64 -128
TEXT -87 -121 Left 2 g
TEXT 0 -96 Center 2 COS
WINDOW 0 0 -144 Center 2
SYMATTR Description Cosine funktion block (gradus)
SYMATTR Prefix X
SYMATTR SpiceModel cos
SYMATTR ModelFile ..\sym\ValVol\fblocks.lib
SYMATTR Value cos
PIN -80 -96 NONE 8
PINATTR PinName inp
PINATTR SpiceOrder 1
PIN 80 -96 NONE 8
PINATTR PinName out
PINATTR SpiceOrder 2
