Version 4
SymbolType CELL
LINE Normal 0 112 0 96
LINE Normal -48 64 -32 64
LINE Normal 48 64 32 64
LINE Normal -38 58 -32 64
LINE Normal -32 64 -38 70
LINE Normal 0 96 6 102
LINE Normal 0 96 -6 102
LINE Normal -16 80 16 48
RECTANGLE Normal 32 96 -32 32
CIRCLE Normal -6 58 -16 48
CIRCLE Normal 6 70 16 80
WINDOW 0 0 16 Center 2
SYMATTR Value div
SYMATTR Prefix X
SYMATTR Description Divider
SYMATTR SpiceModel div
SYMATTR ModelFile ..\sym\ValVol\fblocks.lib
PIN -48 64 NONE 0
PINATTR PinName inp1
PINATTR SpiceOrder 1
PIN 0 112 NONE 0
PINATTR PinName inp2
PINATTR SpiceOrder 2
PIN 48 64 NONE 8
PINATTR PinName out
PINATTR SpiceOrder 3
