Version 4
SymbolType CELL
LINE Normal 5 -119 16 -122
LINE Normal 0 -112 5 -119
LINE Normal 0 -80 0 -112
LINE Normal -6 -73 0 -80
LINE Normal -16 -71 -6 -73
LINE Normal 48 -96 48 -74
LINE Normal 38 -74 48 -96
LINE Normal 38 -96 38 -74
LINE Normal 28 -74 38 -96
LINE Normal -64 -96 -80 -96
LINE Normal -70 -102 -64 -96
LINE Normal -70 -90 -64 -96
LINE Normal 64 -96 80 -96
RECTANGLE Normal 64 -64 -64 -128
WINDOW 0 0 -144 Center 2
WINDOW 39 0 -48 Center 2
WINDOW 40 0 -24 Center 2
SYMATTR SpiceLine TI= IV=
SYMATTR SpiceLine2 LL= UL=
SYMATTR Description Integrator that is reset internally
SYMATTR Prefix X
SYMATTR SpiceModel idt_ir
SYMATTR ModelFile ..\sym\ValVol\fblocks.lib
PIN -80 -96 NONE 8
PINATTR PinName inp
PINATTR SpiceOrder 1
PIN 80 -96 NONE 8
PINATTR PinName out
PINATTR SpiceOrder 2
