Version 4
SymbolType CELL
LINE Normal -32 -32 -16 -32
LINE Normal 0 -16 0 -32
LINE Normal 32 -32 16 -32
CIRCLE Normal 8 -24 -8 -40
CIRCLE Normal -21 -45 -27 -51
ARC Normal -16 -16 16 -48 17 -32 -20 -32
WINDOW 0 0 -64 Center 2
WINDOW 40 10 -12 Left 2
SYMATTR SpiceLine2 K=1
SYMATTR Value isen
SYMATTR Prefix X
SYMATTR Description Current sensor
SYMATTR SpiceModel isen
SYMATTR ModelFile ..\sym\ValVol\fblocks.lib
PIN -32 -32 NONE 0
PINATTR PinName s
PINATTR SpiceOrder 1
PIN 32 -32 NONE 0
PINATTR PinName e
PINATTR SpiceOrder 2
PIN 0 -16 NONE 8
PINATTR PinName out
PINATTR SpiceOrder 3
