Version 4
SymbolType CELL
LINE Normal -64 -96 -80 -96
LINE Normal -70 -102 -64 -96
LINE Normal -70 -90 -64 -96
LINE Normal 64 -96 80 -96
LINE Normal -16 -80 -32 -80
LINE Normal 16 -112 -16 -80
LINE Normal 32 -112 16 -112
LINE Normal 4 -96 32 -96
LINE Normal -4 -96 -32 -96
LINE Normal 0 -100 0 -117
LINE Normal 0 -92 0 -76
RECTANGLE Normal 64 -64 -64 -128
WINDOW 0 0 -144 Center 2
WINDOW 39 0 -48 Center 2
SYMATTR SpiceLine LL= UL=
SYMATTR Description Limiter
SYMATTR Prefix X
SYMATTR SpiceModel limiter
SYMATTR ModelFile ..\sym\ValVol\fblocks.lib
PIN -80 -96 NONE 8
PINATTR PinName inp
PINATTR SpiceOrder 1
PIN 80 -96 NONE 8
PINATTR PinName out
PINATTR SpiceOrder 2
