Version 4
SymbolType CELL
LINE Normal -64 0 -80 0
LINE Normal -64 64 -80 64
LINE Normal 0 128 0 144
LINE Normal 64 64 80 64
LINE Normal 64 0 80 0
LINE Normal -70 -6 -64 0
LINE Normal -70 6 -64 0
LINE Normal -70 58 -64 64
LINE Normal -70 70 -64 64
LINE Normal -6 134 0 128
LINE Normal 0 128 6 134
LINE Normal -48 16 -55 16
LINE Normal -48 -16 -48 16
LINE Normal -41 -16 -48 -16
LINE Normal -48 48 -55 48
LINE Normal -48 80 -48 48
LINE Normal -41 80 -48 80
LINE Normal -48 -2 -52 2
LINE Normal -44 2 -48 -2
LINE Normal -48 66 -52 62
LINE Normal -44 62 -48 66
RECTANGLE Normal 64 128 -64 -64
WINDOW 0 0 -80 Center 2
SYMATTR Description Monostable multivibrator with adjustable width
SYMATTR Prefix X
SYMATTR SpiceModel mono2
SYMATTR ModelFile ..\sym\ValVol\fblocks.lib
PIN -80 0 NONE 24
PINATTR PinName s1
PINATTR SpiceOrder 1
PIN -80 64 NONE 24
PINATTR PinName s2
PINATTR SpiceOrder 2
PIN 0 144 NONE 24
PINATTR PinName vc
PINATTR SpiceOrder 3
PIN 80 0 RIGHT 24
PINATTR PinName Q
PINATTR SpiceOrder 4
PIN 80 64 RIGHT 24
PINATTR PinName _Q
PINATTR SpiceOrder 5
