Version 4
SymbolType CELL
LINE Normal 0 112 0 96
LINE Normal -48 64 -32 64
LINE Normal 48 64 32 64
LINE Normal -38 58 -32 64
LINE Normal -32 64 -38 70
LINE Normal 0 96 6 102
LINE Normal 0 96 -6 102
LINE Normal -14 64 14 64
LINE Normal 0 78 0 50
LINE Normal -16 112 -16 104
LINE Normal -12 108 -20 108
LINE Normal -44 52 -44 44
LINE Normal -40 48 -48 48
LINE Normal -2 84 -3 85
LINE Normal 1 84 -2 84
LINE Normal 2 85 1 84
LINE Normal 2 87 2 85
LINE Normal -3 92 2 87
LINE Normal 2 92 -3 92
LINE Normal -25 59 -27 61
LINE Normal -25 67 -25 59
CIRCLE Normal -32 32 32 96
WINDOW 0 0 -8 Center 2
WINDOW 39 0 16 Center 2
SYMATTR SpiceLine K1=1 K2=1
SYMATTR Value sum
SYMATTR Prefix X
SYMATTR Description Summer with 2 Input
SYMATTR SpiceModel sum
SYMATTR ModelFile ..\sym\ValVol\fblocks.lib
PIN -48 64 NONE 0
PINATTR PinName inp1
PINATTR SpiceOrder 1
PIN 0 112 NONE 0
PINATTR PinName inp2
PINATTR SpiceOrder 2
PIN 48 64 NONE 8
PINATTR PinName out
PINATTR SpiceOrder 3
