Version 4
SymbolType CELL
LINE Normal -64 -96 -80 -96
LINE Normal -70 -102 -64 -96
LINE Normal -70 -90 -64 -96
LINE Normal 64 -96 80 -96
LINE Normal 0 -64 6 -58
LINE Normal -6 -58 0 -64
LINE Normal 0 -48 0 -64
RECTANGLE Normal 64 -64 -64 -128
TEXT 0 -96 Center 2 tab6x5
WINDOW 0 0 -144 Center 2
SYMATTR Description 2-dimensional lookup table (with integer input)
SYMATTR Prefix X
SYMATTR SpiceModel tab6x5
SYMATTR ModelFile ..\sym\ValVol\fblocks.lib
SYMATTR SpiceLine S11= S12= S13= S14= S15= S21= S22= S23= S24= S25= S31= S32= S33= S34= S35=
SYMATTR SpiceLine2 S41= S42= S43= S44= S45= S51= S52= S53= S54= S55= S61= S62= S63= S64= S65=
PIN -80 -96 BOTTOM 5
PINATTR PinName s
PINATTR SpiceOrder 1
PIN 0 -48 RIGHT 10
PINATTR PinName c
PINATTR SpiceOrder 2
PIN 80 -96 NONE 24
PINATTR PinName o
PINATTR SpiceOrder 3
