Version 4
SymbolType CELL
LINE Normal -64 -16 -80 -32
LINE Normal -80 0 -64 -16
LINE Normal -80 -32 -80 0
LINE Normal -96 16 -96 -48
LINE Normal -112 32 -96 16
LINE Normal -112 -64 -112 32
LINE Normal -96 -48 -112 -64
LINE Normal -125 -60 -125 -68
LINE Normal -129 -64 -121 -64
LINE Normal -112 -48 -128 -48
LINE Normal -112 16 -128 16
LINE Normal -64 -16 -48 -16
WINDOW 0 -96 -80 Left 2
WINDOW 40 -80 -56 Left 2
SYMATTR SpiceLine2 K=1
SYMATTR Value vsen
SYMATTR Prefix X
SYMATTR Description Voltage sensor
SYMATTR SpiceModel vsen
SYMATTR ModelFile ..\sym\ValVol\fblocks.lib
PIN -128 -48 NONE 0
PINATTR PinName +
PINATTR SpiceOrder 1
PIN -128 16 NONE 0
PINATTR PinName -
PINATTR SpiceOrder 2
PIN -48 -16 NONE 8
PINATTR PinName out
PINATTR SpiceOrder 3
