Version 4
SymbolType CELL
LINE Normal 0 96 0 88
LINE Normal 0 16 0 24
LINE Normal 0 64 -16 64
LINE Normal 0 48 0 64
LINE Normal 16 48 0 48
LINE Normal 6 34 -6 34
LINE Normal 0 28 0 40
LINE Normal 6 78 -6 78
CIRCLE Normal -32 24 32 88
WINDOW 0 32 16 Left 2
WINDOW 39 48 64 Left 2
WINDOW 40 16 96 Left 2
SYMATTR SpiceLine VS=
SYMATTR SpiceLine2 TS= TT=
SYMATTR Value vst
SYMATTR Prefix X
SYMATTR Description Step voltage source
SYMATTR SpiceModel vst
SYMATTR ModelFile ..\sym\ValVol\fblocks.lib
PIN 0 16 NONE 0
PINATTR PinName +
PINATTR SpiceOrder 1
PIN 0 96 NONE 0
PINATTR PinName -
PINATTR SpiceOrder 2
