Version 4
SymbolType CELL
LINE Normal 0 96 0 88
LINE Normal 0 16 0 24
LINE Normal 6 34 -6 34
LINE Normal 0 28 0 40
LINE Normal 6 78 -6 78
CIRCLE Normal -32 24 32 88
TEXT 1 55 Center 2 time
WINDOW 0 32 16 Left 2
WINDOW 39 41 47 Left 2
SYMATTR SpiceLine ST=0
SYMATTR Value vtm
SYMATTR Prefix X
SYMATTR Description Proportional Time Voltage Source
SYMATTR SpiceModel vtm
SYMATTR ModelFile ..\sym\ValVol\fblocks.lib
PIN 0 16 NONE 0
PINATTR PinName +
PINATTR SpiceOrder 1
PIN 0 96 NONE 0
PINATTR PinName -
PINATTR SpiceOrder 2
