Version 4
SymbolType CELL
LINE Normal 0 96 0 88
LINE Normal 0 16 0 24
LINE Normal -8 48 -16 64
LINE Normal 8 64 -8 48
LINE Normal 16 48 8 64
LINE Normal 6 34 -6 34
LINE Normal 0 28 0 40
LINE Normal 6 78 -6 78
CIRCLE Normal -32 24 32 88
WINDOW 0 32 16 Left 2
WINDOW 39 40 64 Left 2
WINDOW 40 40 96 Left 2
SYMATTR SpiceLine Vpp= F= D=
SYMATTR SpiceLine2 DCoff=0 Tst=0
SYMATTR Value vtr
SYMATTR Prefix X
SYMATTR Description Triangular-wave voltage source
SYMATTR SpiceModel vtr
SYMATTR ModelFile ..\sym\ValVol\fblocks.lib
PIN 0 16 NONE 0
PINATTR PinName +
PINATTR SpiceOrder 1
PIN 0 96 NONE 0
PINATTR PinName -
PINATTR SpiceOrder 2
