Version 4
SHEET 1 880 680
WIRE 368 64 240 64
WIRE 464 64 368 64
WIRE 240 112 240 64
WIRE 368 112 368 64
WIRE 464 144 464 128
WIRE 64 160 48 160
WIRE 160 160 144 160
WIRE 48 176 48 160
WIRE 240 256 240 208
WIRE 240 256 48 256
WIRE 368 256 368 192
WIRE 368 256 240 256
WIRE 464 256 464 224
WIRE 464 256 368 256
WIRE 240 272 240 256
FLAG 240 272 0
SYMBOL voltage 48 160 R0
WINDOW 3 24 104 Invisible 2
WINDOW 123 0 0 Left 2
WINDOW 39 0 0 Left 2
SYMATTR Value PULSE(0 15 0 50n 50n 7.5u 15u)
SYMATTR InstName V1
SYMBOL res 48 176 R270
WINDOW 0 33 33 VTop 2
WINDOW 3 58 75 VBottom 2
SYMATTR InstName R1
SYMATTR Value 23
SYMBOL ValVol\\Infineon\\IGBT\\IKW25N120H3 208 160 R0
SYMATTR InstName U1
SYMBOL current 368 192 R180
WINDOW 0 24 80 Left 2
WINDOW 3 24 0 Left 2
WINDOW 123 0 0 Left 2
WINDOW 39 0 0 Left 2
SYMATTR InstName I1
SYMATTR Value 25
SYMBOL diode 448 64 R0
SYMATTR InstName D1
SYMATTR Value DSEP29-12A
SYMBOL voltage 464 128 R0
WINDOW 123 0 0 Left 2
WINDOW 39 0 0 Left 2
SYMATTR InstName V2
SYMATTR Value 600
TEXT 16 296 Left 2 !.tran 0.1m
