*
*	MODELS OF CREE Inc. 600V Schottky Diodes
*
* 	$Revision:   A01 	 	$
* 	$Author:   SHODGE  	$
* 	$Date:   26-JAN-2004  	$
* 	
*	CREE Inc.
*	4600 Silicon Drive
*	Durham, NC 27703
*	919-313-5300
*	www.cree.com
*
*
*	COPYRIGHT (C) 2004 Cree Inc.
*  	ALL RIGHTS RESERVED
*
* These models are provided "AS IS, WHERE IS, AND WITH NO WARRANTY OF ANY KIND
* EITHER EXPRESSED OR IMPLIED, INCLUDING BUT NOT LIMITED TO ANY IMPLIED WARRANTIES
* OF MERCHANTABILITY AND FITNESS FOR A PARTICULAR PURPOSE."	
*
*	
*
*$
*BeginSpec
*IF: (0,0) (.87,.25) (.9,.5) (.995,1) (1.0800,2) (1.2000,4) (1.3000,6) (1.4500,8) (1.5800,10)
*IF: (1.7000,12) (1.8200,14) (1.9500,16) (2.0800,18) (2.2000,20)
*JC: (.1,1.2000E-9) (1,750.00E-12) (10,340.00E-12) (100,110.00E-12) (1.0000E3,40.000E-12)
*RL: (0,0) (500,0) (1.0000E3,5.0000E-6) (1.2000E3,9.0000E-6) (1.5000E3,45.000E-6)
*RB: Vz=1.3000E3 Iz=200.00E-6 Zz=200
*RR: Trr=1.0000E-9 Ifwd=10 Irev=1.0000E-3 Rl=100
*EndSpec

*BeginTrace
*IF: 1,0,0,2.2000,1,3,0,0,-1 (27)
*JC: 0,1,.1,1.0000E3,1,3,0,0,-1 (27)
*RL: 0,0,0,1.5000E3,1,3,0,0,-1 (27)
*RB: 0,1,100.00E-6,1,1,3,0,0,-1 (27)
*RR: 0,0,-5.0000E-9,20.000E-9,1,3,0,0,-1 (27)
*EndTrace

*BeginParam
*IS=10.434E-21 (10.000E-21,.1,0)
*N=.67411 (.2,5,0)
*RS=58.841E-3 (1.0000E-6,100,0)
*IKF=1.8590E-3 (0,1.0000E3,0)
*XTI=3 (-100,100,0)
*EG=1.1100 (.1,5.5100,0)
*CJO=1.3190E-9 (10.000E-21,1.0000E-3,0)
*M=.43096 (.1,10,0)
*VJ=.3905 (.3905,10,0)
*FC=.5 (1.0000E-3,10,0)
*ISR=560.76E-9 (10.000E-21,.1,0)
*NR=4.9949 (.5,5,0)
*BV=1.3002E3 (.1,1.0000E6,0)
*IBV=.64679 (1.0000E-9,10,0)
*TT=108.57E-12 (100.00E-18,1.0000E-3,0)
*EndParam

*DEVICE=CSD10120,D

* CSD10120 D model
* updated using Model Editor release 9.0 on 04/27/04 at 20:43
* Model Editor is an OrCAD product.
.MODEL CSD10120 D
+ IS=10.434E-21
+ N=.67411
+ RS=58.841E-3
+ IKF=1.8590E-3
+ CJO=1.3190E-9
+ M=.43096
+ VJ=.3905
+ ISR=560.76E-9
+ NR=4.9949
+ BV=1.3002E3
+ IBV=.64679
+ TT=108.57E-12
*$
*BeginSpec
*IF: (0,0) (.98,.25) (1.0200,.5) (1.1000,1) (1.2000,2) (1.4600,4) (1.6800,6) (1.9500,8) (2.1900,10)
*JC: (.1,600.00E-12) (1,350.00E-12) (10,170.00E-12) (100,65.000E-12) (800,35.000E-12) (1.0000E3,20.000E-12)
*RL: (0,0) (1.0000E3,5.0000E-6) (1.1000E3,10.000E-6) (1.2000E3,20.000E-6) (1.3000E3,40.000E-6) (1.4000E3,140.00E-6)
*RB: Vz=1.3000E3 Iz=1.0000E-3 Zz=200
*RR: Trr=1.0000E-9 Ifwd=5 Irev=.1 Rl=100
*EndSpec

*BeginTrace
*IF: 1,0,0,2.1900,1,3,0,0,-1 (27)
*JC: 0,1,.1,1.0000E3,1,3,0,0,-1 (27)
*RL: 0,0,0,1.4000E3,1,3,0,0,-1 (27)
*RB: 0,1,100.00E-6,1,1,3,0,0,-1 (27)
*RR: 0,0,-5.0000E-9,20.000E-9,1,3,0,0,-1 (27)
*EndTrace

*BeginParam
*IS=10.000E-21 (10.000E-21,.1,0)
*N=.8155 (.2,5,0)
*RS=.11569 (1.0000E-6,100,0)
*IKF=65.278 (0,1.0000E3,0)
*XTI=3 (-100,100,0)
*EG=1.1100 (.1,5.5100,0)
*CJO=649.52E-12 (10.000E-21,1.0000E-3,0)
*M=.43257 (.1,10,0)
*VJ=.3905 (.3905,10,0)
*FC=.5 (1.0000E-3,10,0)
*ISR=1.3979E-6 (10.000E-21,.1,0)
*NR=4.9943 (.5,5,0)
*BV=1.3001E3 (.1,1.0000E6,0)
*IBV=.1294 (1.0000E-9,10,0)
*TT=254.33E-12 (100.00E-18,1.0000E-3,0)
*EndParam

*DEVICE=CSD05120,D

* CSD05120 D model
* updated using Model Editor release 9.0 on 04/27/04 at 20:33
* Model Editor is an OrCAD product.
.MODEL CSD05120 D
+ IS=10.000E-21
+ N=.8155
+ RS=.11569
+ IKF=65.278
+ CJO=649.52E-12
+ M=.43257
+ VJ=.3905
+ ISR=1.3979E-6
+ NR=4.9943
+ BV=1.3001E3
+ IBV=.1294
+ TT=254.33E-12
*$
*BeginSpec
*IF: (.5,0) (.62,.5) (.68,1) (.75,2) (.8,3) (.85,4) (.9,5) (.96,6) (1.0500,7)
*IF: (1.1000,8) (1.1500,9) (1.2000,10) (1.3000,12) (1.4000,14) (1.5200,16) (1.6500,18) (1.7500,20)
*JC: (1,450.00E-12) (10,200.00E-12) (80,70.000E-12) (90,65.000E-12) (100,64.000E-12) (200,60.000E-12) (400,58.000E-12)
*RL: (0,0) (300,1.0000E-6) (340,8.0000E-6) (360,20.000E-6)
*RB: Vz=400 Iz=200.00E-6 Zz=200
*RR: Trr=1.0000E-9 Ifwd=10 Irev=1.0000E-3 Rl=100
*EndSpec

*BeginTrace
*IF: 1,0,.4,1.7500,1,3,0,0,-1 (27)
*JC: 0,1,.1,400,1,3,0,0,-1 (27)
*RL: 0,0,0,360,1,3,0,0,-1 (27)
*RB: 0,1,100.00E-6,1,1,3,0,0,-1 (27)
*RR: 0,0,-5.0000E-9,20.000E-9,1,3,0,0,-1 (27)
*EndTrace

*BeginParam
*IS=57.247E-15 (10.000E-21,.1,0)
*N=.78215 (.2,5,0)
*RS=53.340E-3 (1.0000E-6,100,0)
*IKF=107.75 (0,1.0000E3,0)
*XTI=3 (-100,100,0)
*EG=1.1100 (.1,5.5100,0)
*CJO=680.21E-12 (10.000E-21,1.0000E-3,0)
*M=.44923 (.1,10,0)
*VJ=.66421 (.3905,10,0)
*FC=.5 (1.0000E-3,10,0)
*ISR=606.14E-9 (10.000E-21,.1,0)
*NR=4.9946 (.5,5,0)
*BV=400.21 (.1,1.0000E6,0)
*IBV=.64678 (1.0000E-9,10,0)
*TT=108.57E-12 (100.00E-18,1.0000E-3,0)
*EndParam

*DEVICE=CSD10030,D

* CSD10030 D model
* updated using Model Editor release 9.0 on 04/12/04 at 20:05
* Model Editor is an OrCAD product.
.MODEL CSD10030 D
+ IS=57.247E-15
+ N=.78215
+ RS=53.340E-3
+ IKF=107.75
+ CJO=680.21E-12
+ M=.44923
+ VJ=.66421
+ ISR=606.14E-9
+ NR=4.9946
+ BV=400.21
+ IBV=.64678
+ TT=108.57E-12
*$
*BeginSpec
*IF: (1.1000,1) (1.2300,2) (1.3600,3) (1.5000,4) (1.6200,5) (1.7500,6) (1.8800,7) (2,8)
*JC: (5,123.00E-12) (10,95.000E-12) (50,50.000E-12) (100,36.000E-12) (500,19.000E-12)
*RL: (100,1.0000E-9) (300,2.0000E-9) (500,4.0000E-6) (700,120.00E-6)
*RB: Vz=800 Iz=1.0000E-3 Zz=200
*RR: Trr=100.00E-12 Ifwd=4 Irev=10.000E-3 Rl=100
*EndSpec

*BeginTrace
*IF: 1,0,.4,2,1,3,0,0,-1 (27)
*JC: 0,1,.1,500,1,3,0,0,-1 (27)
*RL: 0,0,1,700,1,3,0,0,-1 (27)
*RB: 0,1,100.00E-6,1,1,3,0,0,-1 (27)
*RR: 0,0,-5.0000E-9,20.000E-9,1,3,0,0,-1 (27)
*EndTrace

*BeginParam
*IS=10.000E-21 (10.000E-21,.1,0)
*N=.8164 (.2,5,0)
*RS=.12257 (1.0000E-6,100,0)
*IKF=15.629 (0,1.0000E3,0)
*XTI=3 (-100,100,0)
*EG=1.1100 (.1,5.5100,0)
*CJO=260.04E-12 (10.000E-21,1.0000E-3,0)
*M=.42769 (.1,10,0)
*VJ=1.0508 (.3905,10,0)
*FC=.5 (1.0000E-3,10,0)
*ISR=3.1529E-6 (10.000E-21,.1,0)
*NR=4.7620 (.5,5,0)
*BV=800.13 (.1,1.0000E6,0)
*IBV=.1294 (1.0000E-9,10,0)
*TT=16.683E-12 (100.00E-18,1.0000E-3,0)
*EndParam

*DEVICE=CSD04060,D

* CSD04060 D model
* created using Parts release 8.0 on 01/21/104 at 21:22
* Parts is a MicroSim product.
.MODEL CSD04060 D
+ IS=10.000E-21
+ N=.8164
+ RS=.12257
+ IKF=15.629
+ CJO=260.04E-12
+ M=.42769
+ VJ=1.0508
+ ISR=3.1529E-6
+ NR=4.7620
+ BV=800.13
+ IBV=.1294
+ TT=16.683E-12
*$
*BeginSpec
*IF: (1,.5) (1.1000,1) (1.2000,2) (1.3000,3) (1.4000,4) (1.6000,6) (1.8000,8) (2,10) (2.2000,12)
*JC: (5,185.00E-12) (10,140.00E-12) (50,75.000E-12) (100,55.000E-12) (500,30.000E-12)
*RL: (0,1.0000E-9) (200,1.0000E-9) (400,1.0000E-9) (500,5.0000E-6) (600,60.000E-6) (650,200.00E-6)
*RB: Vz=800 Iz=1.0000E-3 Zz=200
*RR: Trr=100.00E-12 Ifwd=6 Irev=10.000E-3 Rl=100
*EndSpec

*BeginTrace
*IF: 1,0,0,3.5000,1,3,0,0,-1 (27)
*JC: 0,1,.1,500,1,3,0,0,-1 (27)
*RL: 0,0,0,650,1,3,0,0,-1 (27)
*RB: 0,1,100.00E-6,1,1,3,0,0,-1 (27)
*RR: 0,0,-5.0000E-9,20.000E-9,1,3,0,0,-1 (27)
*EndTrace

*BeginParam
*IS=479.17E-6 (10.000E-21,.1,0)
*N=4.9950 (.2,5,0)
*RS=70.317E-3 (1.0000E-6,100,0)
*IKF=1.0000E3 (0,1.0000E3,0)
*XTI=3 (-100,100,0)
*EG=1.1100 (.1,5.5100,0)
*CJO=537.33E-12 (10.000E-21,1.0000E-3,0)
*M=.40753 (.1,10,0)
*VJ=.3905 (.3905,10,0)
*FC=.5 (1.0000E-3,10,0)
*ISR=10.010E-21 (10.000E-21,.1,0)
*NR=4.9950 (.5,5,0)
*BV=800.13 (.1,1.0000E6,0)
*IBV=.12937 (1.0000E-9,10,0)
*TT=15.628E-12 (100.00E-18,1.0000E-3,0)
*EndParam

*DEVICE=CSD06060,D

* CSD06060 D model
* created using Parts release 8.0 on 01/21/104 at 21:22
* Parts is a MicroSim product.
.MODEL CSD06060 D
+ IS=479.17E-6
+ N=4.9950
+ RS=70.317E-3
+ IKF=1.0000E3
+ CJO=537.33E-12
+ M=.40753
+ VJ=.3905
+ ISR=10.010E-21
+ NR=4.9950
+ BV=800.13
+ IBV=.12937
+ TT=15.628E-12
*$
*BeginSpec
*IF: (0,0) (.95,.5) (1,1) (1.0800,2) (1.1300,3) (1.1900,4) (1.2400,5) (1.2900,6) (1.3400,7)
*IF: (1.4000,8) (1.4500,9) (1.5000,10) (1.5500,11) (1.6000,12) (1.6500,13) (1.7000,14) (1.7500,15) (1.8000,16)
*IF: (1.8500,17) (1.9000,18) (1.9500,19) (2,20)
*JC: (3,360.00E-12) (4,275.00E-12) (10,240.00E-12) (30,150.00E-12) (100,90.000E-12) (400,50.000E-12)
*RL: (100,1.0000E-6) (200,1.0000E-6) (300,1.0000E-6) (400,1.0000E-6) (500,10.000E-6) (600,50.000E-6) (700,200.00E-6)
*RB: Vz=800 Iz=1.0000E-3 Zz=200
*RR: Trr=100.00E-12 Ifwd=10 Irev=10.000E-3 Rl=100
*EndSpec

*BeginTrace
*IF: 1,0,0,2,1,3,0,0,-1 (27)
*JC: 0,1,.1,400,1,3,0,0,-1 (27)
*RL: 0,0,1,700,1,3,0,0,-1 (27)
*RB: 0,1,100.00E-6,1,1,3,0,0,-1 (27)
*RR: 0,0,-5.0000E-9,20.000E-9,1,3,0,0,-1 (27)
*EndTrace

*BeginParam
*IS=10.000E-21 (10.000E-21,.1,0)
*N=.79201 (.2,5,0)
*RS=46.641E-3 (1.0000E-6,100,0)
*IKF=1.1519 (0,1.0000E3,0)
*XTI=3 (-100,100,0)
*EG=1.1100 (.1,5.5100,0)
*CJO=381.44E-12 (10.000E-21,1.0000E-3,0)
*M=.63338 (.1,10,0)
*VJ=9.9900 (.3905,10,0)
*FC=.5 (1.0000E-3,10,0)
*ISR=4.7174E-6 (10.000E-21,.1,0)
*NR=4.9950 (.5,5,0)
*BV=800.13 (.1,1.0000E6,0)
*IBV=.12935 (1.0000E-9,10,0)
*TT=14.474E-12 (100.00E-18,1.0000E-3,0)
*EndParam

*DEVICE=CSD10060,D

* CSD10060 D model
* created using Parts release 8.0 on 01/22/104 at 09:17
* Parts is a MicroSim product.
.MODEL CSD10060 D
+ IS=10.000E-21
+ N=.79201
+ RS=46.641E-3
+ IKF=1.1519
+ CJO=381.44E-12
+ M=.63338
+ VJ=9.9900
+ ISR=4.7174E-6
+ NR=4.9950
+ BV=800.13
+ IBV=.12935
+ TT=14.474E-12
*$
*BeginSpec
*IF: (0,0) (1,.1) (1.0400,.2) (1.1400,.4) (1.2200,.6) (1.3000,.8) (1.3800,1) (1.4800,1.2000) (1.5100,1.6000)
*IF: (1.7800,2)
*JC: (5,45.000E-12) (10,35.000E-12) (50,19.000E-12) (100,14.000E-12) (500,8.0000E-12)
*RL: (200,1.0000E-9) (300,1.0000E-9) (400,1.0000E-9) (500,1.0000E-6) (600,5.0000E-6) (700,8.0000E-6) (800,20.000E-6)
*RB: Vz=800 Iz=1.0000E-3 Zz=200
*RR: Trr=100.00E-12 Ifwd=1 Irev=10.000E-3 Rl=100
*EndSpec

*BeginTrace
*IF: 1,0,0,3.5000,1,3,0,0,-1 (27)
*JC: 0,1,.1,500,1,3,0,0,-1 (27)
*RL: 0,0,1,1.0000E3,1,3,0,0,-1 (27)
*RB: 0,1,100.00E-6,1,1,3,0,0,-1 (27)
*RR: 0,0,-5.0000E-9,20.000E-9,1,3,0,0,-1 (27)
*EndTrace

*BeginParam
*IS=22.008E-18 (10.000E-21,.1,0)
*N=1.0313 (.2,5,0)
*RS=.34849 (1.0000E-6,100,0)
*IKF=65.284 (0,1.0000E3,0)
*XTI=3 (-100,100,0)
*EG=1.1100 (.1,5.5100,0)
*CJO=118.40E-12 (10.000E-21,1.0000E-3,0)
*M=.39104 (.1,10,0)
*VJ=.46094 (.3905,10,0)
*FC=.5 (1.0000E-3,10,0)
*ISR=372.48E-9 (10.000E-21,.1,0)
*NR=4.4145 (.5,5,0)
*BV=800.13 (.1,1.0000E6,0)
*IBV=.12955 (1.0000E-9,10,0)
*TT=21.668E-12 (100.00E-18,1.0000E-3,0)
*EndParam

*DEVICE=CSD01060,D

* CSD01060 D model
* created using Parts release 8.0 on 04/27/104 at 21:00
* Parts is a MicroSim product.
.MODEL CSD01060 D
+ IS=22.008E-18
+ N=1.0313
+ RS=.34849
+ IKF=65.284
+ CJO=118.40E-12
+ M=.39104
+ VJ=.46094
+ ISR=372.48E-9
+ NR=4.4145
+ BV=800.13
+ IBV=.12955
+ TT=21.668E-12
*$
