Version 4
SHEET 1 2200 2796
WIRE 704 240 672 240
WIRE 976 240 960 240
WIRE 1136 240 1120 240
WIRE 1408 240 1392 240
WIRE 1584 240 1568 240
WIRE 1872 240 1840 240
WIRE 704 512 688 512
WIRE 992 512 960 512
WIRE 1136 512 1120 512
WIRE 1408 512 1392 512
WIRE 1584 512 1568 512
WIRE 1872 512 1840 512
WIRE 704 784 688 784
WIRE 992 784 960 784
WIRE 1136 784 1120 784
WIRE 1408 784 1392 784
WIRE 1584 784 1568 784
WIRE 1872 784 1840 784
WIRE 704 1056 688 1056
WIRE 992 1056 960 1056
WIRE 1120 1056 1088 1056
WIRE 1424 1056 1376 1056
WIRE 1584 1056 1552 1056
WIRE 1888 1056 1840 1056
FLAG 832 336 0
FLAG 1264 336 0
FLAG 1264 608 0
FLAG 832 608 0
FLAG 832 880 0
FLAG 1264 880 0
FLAG 1712 880 0
FLAG 1712 608 0
FLAG 1712 336 0
FLAG 512 304 0
FLAG 512 224 VCC
FLAG 672 240 VCC
FLAG 1120 240 VCC
FLAG 1568 240 VCC
FLAG 1568 512 VCC
FLAG 1120 512 VCC
FLAG 688 512 VCC
FLAG 688 784 VCC
FLAG 1120 784 VCC
FLAG 1568 784 VCC
FLAG 512 560 0
FLAG 512 480 VSS
FLAG 832 1152 0
FLAG 1248 1152 0
FLAG 1712 1152 0
FLAG 688 1056 VSS
FLAG 1088 1056 VSS
FLAG 1552 1056 VSS
DATAFLAG 976 240 ""
DATAFLAG 1408 240 ""
DATAFLAG 1872 240 ""
DATAFLAG 992 512 ""
DATAFLAG 1408 512 ""
DATAFLAG 1872 512 ""
DATAFLAG 1872 784 ""
DATAFLAG 1408 784 ""
DATAFLAG 992 784 ""
DATAFLAG 992 1056 ""
DATAFLAG 1424 1056 ""
DATAFLAG 1888 1056 ""
SYMBOL ZZZ\\VolReg\\LM7805-1 832 240 R0
SYMATTR InstName X1
SYMBOL ZZZ\\VolReg\\7805 1264 240 R0
SYMATTR InstName X2
SYMBOL ZZZ\\VolReg\\7812 832 512 R0
SYMATTR InstName X3
SYMBOL ZZZ\\VolReg\\7815 1264 512 R0
SYMATTR InstName X4
SYMBOL ZZZ\\VolReg\\LM7808C 1712 240 R0
SYMATTR InstName X5
SYMBOL ZZZ\\VolReg\\LM7812 1712 512 R0
SYMATTR InstName X6
SYMBOL ZZZ\\VolReg\\LM7824C 832 784 R0
SYMATTR InstName X7
SYMBOL ZZZ\\VolReg\\LM7815C 1264 784 R0
SYMATTR InstName X8
SYMBOL ZZZ\\VolReg\\LM7815 1712 784 R0
SYMATTR InstName X9
SYMBOL voltage 512 208 R0
WINDOW 123 0 0 Left 0
WINDOW 39 0 0 Left 0
SYMATTR InstName V1
SYMATTR Value 30
SYMBOL ZZZ\\VolReg\\LM7905 832 1056 R0
SYMATTR InstName U1
SYMBOL ZZZ\\VolReg\\LM7912 1248 1056 R0
SYMATTR InstName U2
SYMBOL ZZZ\\VolReg\\LM7915 1712 1056 R0
SYMATTR InstName U3
SYMBOL voltage 512 464 R0
WINDOW 123 0 0 Left 0
WINDOW 39 0 0 Left 0
SYMATTR InstName V2
SYMATTR Value -30
TEXT 480 920 Left 2 !.op
